data_image0
_chemical_formula_structural       Mg4000
_chemical_formula_sum              "Mg4000"
_cell_length_a       32.1
_cell_length_b       55.5988
_cell_length_c       52.4193
_cell_angle_alpha    90
_cell_angle_beta     90
_cell_angle_gamma    90

_space_group_name_H-M_alt    "P 1"
_space_group_IT_number       1

loop_
  _space_group_symop_operation_xyz
  'x, y, z'

loop_
  _atom_site_type_symbol
  _atom_site_label
  _atom_site_symmetry_multiplicity
  _atom_site_fract_x
  _atom_site_fract_y
  _atom_site_fract_z
  _atom_site_occupancy
  Mg  Mg1       1.0  0.00000  0.00000  0.00000  1.0000
  Mg  Mg2       1.0  0.05000  0.05000  0.00000  1.0000
  Mg  Mg3       1.0  0.05000  0.01667  0.05000  1.0000
  Mg  Mg4       1.0  0.00000  0.06667  0.05000  1.0000
  Mg  Mg5       1.0  0.10000  0.00000  0.00000  1.0000
  Mg  Mg6       1.0  0.15000  0.05000  0.00000  1.0000
  Mg  Mg7       1.0  0.15000  0.01667  0.05000  1.0000
  Mg  Mg8       1.0  0.10000  0.06667  0.05000  1.0000
  Mg  Mg9       1.0  0.20000  0.00000  0.00000  1.0000
  Mg  Mg10      1.0  0.25000  0.05000  0.00000  1.0000
  Mg  Mg11      1.0  0.25000  0.01667  0.05000  1.0000
  Mg  Mg12      1.0  0.20000  0.06667  0.05000  1.0000
  Mg  Mg13      1.0  0.30000  0.00000  0.00000  1.0000
  Mg  Mg14      1.0  0.35000  0.05000  0.00000  1.0000
  Mg  Mg15      1.0  0.35000  0.01667  0.05000  1.0000
  Mg  Mg16      1.0  0.30000  0.06667  0.05000  1.0000
  Mg  Mg17      1.0  0.40000  0.00000  0.00000  1.0000
  Mg  Mg18      1.0  0.45000  0.05000  0.00000  1.0000
  Mg  Mg19      1.0  0.45000  0.01667  0.05000  1.0000
  Mg  Mg20      1.0  0.40000  0.06667  0.05000  1.0000
  Mg  Mg21      1.0  0.50000  0.00000  0.00000  1.0000
  Mg  Mg22      1.0  0.55000  0.05000  0.00000  1.0000
  Mg  Mg23      1.0  0.55000  0.01667  0.05000  1.0000
  Mg  Mg24      1.0  0.50000  0.06667  0.05000  1.0000
  Mg  Mg25      1.0  0.60000  0.00000  0.00000  1.0000
  Mg  Mg26      1.0  0.65000  0.05000  0.00000  1.0000
  Mg  Mg27      1.0  0.65000  0.01667  0.05000  1.0000
  Mg  Mg28      1.0  0.60000  0.06667  0.05000  1.0000
  Mg  Mg29      1.0  0.70000  0.00000  0.00000  1.0000
  Mg  Mg30      1.0  0.75000  0.05000  0.00000  1.0000
  Mg  Mg31      1.0  0.75000  0.01667  0.05000  1.0000
  Mg  Mg32      1.0  0.70000  0.06667  0.05000  1.0000
  Mg  Mg33      1.0  0.80000  0.00000  0.00000  1.0000
  Mg  Mg34      1.0  0.85000  0.05000  0.00000  1.0000
  Mg  Mg35      1.0  0.85000  0.01667  0.05000  1.0000
  Mg  Mg36      1.0  0.80000  0.06667  0.05000  1.0000
  Mg  Mg37      1.0  0.90000  0.00000  0.00000  1.0000
  Mg  Mg38      1.0  0.95000  0.05000  0.00000  1.0000
  Mg  Mg39      1.0  0.95000  0.01667  0.05000  1.0000
  Mg  Mg40      1.0  0.90000  0.06667  0.05000  1.0000
  Mg  Mg41      1.0  0.00000  0.10000  0.00000  1.0000
  Mg  Mg42      1.0  0.05000  0.15000  0.00000  1.0000
  Mg  Mg43      1.0  0.05000  0.11667  0.05000  1.0000
  Mg  Mg44      1.0  0.00000  0.16667  0.05000  1.0000
  Mg  Mg45      1.0  0.10000  0.10000  0.00000  1.0000
  Mg  Mg46      1.0  0.15000  0.15000  0.00000  1.0000
  Mg  Mg47      1.0  0.15000  0.11667  0.05000  1.0000
  Mg  Mg48      1.0  0.10000  0.16667  0.05000  1.0000
  Mg  Mg49      1.0  0.20000  0.10000  0.00000  1.0000
  Mg  Mg50      1.0  0.25000  0.15000  0.00000  1.0000
  Mg  Mg51      1.0  0.25000  0.11667  0.05000  1.0000
  Mg  Mg52      1.0  0.20000  0.16667  0.05000  1.0000
  Mg  Mg53      1.0  0.30000  0.10000  0.00000  1.0000
  Mg  Mg54      1.0  0.35000  0.15000  0.00000  1.0000
  Mg  Mg55      1.0  0.35000  0.11667  0.05000  1.0000
  Mg  Mg56      1.0  0.30000  0.16667  0.05000  1.0000
  Mg  Mg57      1.0  0.40000  0.10000  0.00000  1.0000
  Mg  Mg58      1.0  0.45000  0.15000  0.00000  1.0000
  Mg  Mg59      1.0  0.45000  0.11667  0.05000  1.0000
  Mg  Mg60      1.0  0.40000  0.16667  0.05000  1.0000
  Mg  Mg61      1.0  0.50000  0.10000  0.00000  1.0000
  Mg  Mg62      1.0  0.55000  0.15000  0.00000  1.0000
  Mg  Mg63      1.0  0.55000  0.11667  0.05000  1.0000
  Mg  Mg64      1.0  0.50000  0.16667  0.05000  1.0000
  Mg  Mg65      1.0  0.60000  0.10000  0.00000  1.0000
  Mg  Mg66      1.0  0.65000  0.15000  0.00000  1.0000
  Mg  Mg67      1.0  0.65000  0.11667  0.05000  1.0000
  Mg  Mg68      1.0  0.60000  0.16667  0.05000  1.0000
  Mg  Mg69      1.0  0.70000  0.10000  0.00000  1.0000
  Mg  Mg70      1.0  0.75000  0.15000  0.00000  1.0000
  Mg  Mg71      1.0  0.75000  0.11667  0.05000  1.0000
  Mg  Mg72      1.0  0.70000  0.16667  0.05000  1.0000
  Mg  Mg73      1.0  0.80000  0.10000  0.00000  1.0000
  Mg  Mg74      1.0  0.85000  0.15000  0.00000  1.0000
  Mg  Mg75      1.0  0.85000  0.11667  0.05000  1.0000
  Mg  Mg76      1.0  0.80000  0.16667  0.05000  1.0000
  Mg  Mg77      1.0  0.90000  0.10000  0.00000  1.0000
  Mg  Mg78      1.0  0.95000  0.15000  0.00000  1.0000
  Mg  Mg79      1.0  0.95000  0.11667  0.05000  1.0000
  Mg  Mg80      1.0  0.90000  0.16667  0.05000  1.0000
  Mg  Mg81      1.0  0.00000  0.20000  0.00000  1.0000
  Mg  Mg82      1.0  0.05000  0.25000  0.00000  1.0000
  Mg  Mg83      1.0  0.05000  0.21667  0.05000  1.0000
  Mg  Mg84      1.0  0.00000  0.26667  0.05000  1.0000
  Mg  Mg85      1.0  0.10000  0.20000  0.00000  1.0000
  Mg  Mg86      1.0  0.15000  0.25000  0.00000  1.0000
  Mg  Mg87      1.0  0.15000  0.21667  0.05000  1.0000
  Mg  Mg88      1.0  0.10000  0.26667  0.05000  1.0000
  Mg  Mg89      1.0  0.20000  0.20000  0.00000  1.0000
  Mg  Mg90      1.0  0.25000  0.25000  0.00000  1.0000
  Mg  Mg91      1.0  0.25000  0.21667  0.05000  1.0000
  Mg  Mg92      1.0  0.20000  0.26667  0.05000  1.0000
  Mg  Mg93      1.0  0.30000  0.20000  0.00000  1.0000
  Mg  Mg94      1.0  0.35000  0.25000  0.00000  1.0000
  Mg  Mg95      1.0  0.35000  0.21667  0.05000  1.0000
  Mg  Mg96      1.0  0.30000  0.26667  0.05000  1.0000
  Mg  Mg97      1.0  0.40000  0.20000  0.00000  1.0000
  Mg  Mg98      1.0  0.45000  0.25000  0.00000  1.0000
  Mg  Mg99      1.0  0.45000  0.21667  0.05000  1.0000
  Mg  Mg100     1.0  0.40000  0.26667  0.05000  1.0000
  Mg  Mg101     1.0  0.50000  0.20000  0.00000  1.0000
  Mg  Mg102     1.0  0.55000  0.25000  0.00000  1.0000
  Mg  Mg103     1.0  0.55000  0.21667  0.05000  1.0000
  Mg  Mg104     1.0  0.50000  0.26667  0.05000  1.0000
  Mg  Mg105     1.0  0.60000  0.20000  0.00000  1.0000
  Mg  Mg106     1.0  0.65000  0.25000  0.00000  1.0000
  Mg  Mg107     1.0  0.65000  0.21667  0.05000  1.0000
  Mg  Mg108     1.0  0.60000  0.26667  0.05000  1.0000
  Mg  Mg109     1.0  0.70000  0.20000  0.00000  1.0000
  Mg  Mg110     1.0  0.75000  0.25000  0.00000  1.0000
  Mg  Mg111     1.0  0.75000  0.21667  0.05000  1.0000
  Mg  Mg112     1.0  0.70000  0.26667  0.05000  1.0000
  Mg  Mg113     1.0  0.80000  0.20000  0.00000  1.0000
  Mg  Mg114     1.0  0.85000  0.25000  0.00000  1.0000
  Mg  Mg115     1.0  0.85000  0.21667  0.05000  1.0000
  Mg  Mg116     1.0  0.80000  0.26667  0.05000  1.0000
  Mg  Mg117     1.0  0.90000  0.20000  0.00000  1.0000
  Mg  Mg118     1.0  0.95000  0.25000  0.00000  1.0000
  Mg  Mg119     1.0  0.95000  0.21667  0.05000  1.0000
  Mg  Mg120     1.0  0.90000  0.26667  0.05000  1.0000
  Mg  Mg121     1.0  0.00000  0.30000  0.00000  1.0000
  Mg  Mg122     1.0  0.05000  0.35000  0.00000  1.0000
  Mg  Mg123     1.0  0.05000  0.31667  0.05000  1.0000
  Mg  Mg124     1.0  0.00000  0.36667  0.05000  1.0000
  Mg  Mg125     1.0  0.10000  0.30000  0.00000  1.0000
  Mg  Mg126     1.0  0.15000  0.35000  0.00000  1.0000
  Mg  Mg127     1.0  0.15000  0.31667  0.05000  1.0000
  Mg  Mg128     1.0  0.10000  0.36667  0.05000  1.0000
  Mg  Mg129     1.0  0.20000  0.30000  0.00000  1.0000
  Mg  Mg130     1.0  0.25000  0.35000  0.00000  1.0000
  Mg  Mg131     1.0  0.25000  0.31667  0.05000  1.0000
  Mg  Mg132     1.0  0.20000  0.36667  0.05000  1.0000
  Mg  Mg133     1.0  0.30000  0.30000  0.00000  1.0000
  Mg  Mg134     1.0  0.35000  0.35000  0.00000  1.0000
  Mg  Mg135     1.0  0.35000  0.31667  0.05000  1.0000
  Mg  Mg136     1.0  0.30000  0.36667  0.05000  1.0000
  Mg  Mg137     1.0  0.40000  0.30000  0.00000  1.0000
  Mg  Mg138     1.0  0.45000  0.35000  0.00000  1.0000
  Mg  Mg139     1.0  0.45000  0.31667  0.05000  1.0000
  Mg  Mg140     1.0  0.40000  0.36667  0.05000  1.0000
  Mg  Mg141     1.0  0.50000  0.30000  0.00000  1.0000
  Mg  Mg142     1.0  0.55000  0.35000  0.00000  1.0000
  Mg  Mg143     1.0  0.55000  0.31667  0.05000  1.0000
  Mg  Mg144     1.0  0.50000  0.36667  0.05000  1.0000
  Mg  Mg145     1.0  0.60000  0.30000  0.00000  1.0000
  Mg  Mg146     1.0  0.65000  0.35000  0.00000  1.0000
  Mg  Mg147     1.0  0.65000  0.31667  0.05000  1.0000
  Mg  Mg148     1.0  0.60000  0.36667  0.05000  1.0000
  Mg  Mg149     1.0  0.70000  0.30000  0.00000  1.0000
  Mg  Mg150     1.0  0.75000  0.35000  0.00000  1.0000
  Mg  Mg151     1.0  0.75000  0.31667  0.05000  1.0000
  Mg  Mg152     1.0  0.70000  0.36667  0.05000  1.0000
  Mg  Mg153     1.0  0.80000  0.30000  0.00000  1.0000
  Mg  Mg154     1.0  0.85000  0.35000  0.00000  1.0000
  Mg  Mg155     1.0  0.85000  0.31667  0.05000  1.0000
  Mg  Mg156     1.0  0.80000  0.36667  0.05000  1.0000
  Mg  Mg157     1.0  0.90000  0.30000  0.00000  1.0000
  Mg  Mg158     1.0  0.95000  0.35000  0.00000  1.0000
  Mg  Mg159     1.0  0.95000  0.31667  0.05000  1.0000
  Mg  Mg160     1.0  0.90000  0.36667  0.05000  1.0000
  Mg  Mg161     1.0  0.00000  0.40000  0.00000  1.0000
  Mg  Mg162     1.0  0.05000  0.45000  0.00000  1.0000
  Mg  Mg163     1.0  0.05000  0.41667  0.05000  1.0000
  Mg  Mg164     1.0  0.00000  0.46667  0.05000  1.0000
  Mg  Mg165     1.0  0.10000  0.40000  0.00000  1.0000
  Mg  Mg166     1.0  0.15000  0.45000  0.00000  1.0000
  Mg  Mg167     1.0  0.15000  0.41667  0.05000  1.0000
  Mg  Mg168     1.0  0.10000  0.46667  0.05000  1.0000
  Mg  Mg169     1.0  0.20000  0.40000  0.00000  1.0000
  Mg  Mg170     1.0  0.25000  0.45000  0.00000  1.0000
  Mg  Mg171     1.0  0.25000  0.41667  0.05000  1.0000
  Mg  Mg172     1.0  0.20000  0.46667  0.05000  1.0000
  Mg  Mg173     1.0  0.30000  0.40000  0.00000  1.0000
  Mg  Mg174     1.0  0.35000  0.45000  0.00000  1.0000
  Mg  Mg175     1.0  0.35000  0.41667  0.05000  1.0000
  Mg  Mg176     1.0  0.30000  0.46667  0.05000  1.0000
  Mg  Mg177     1.0  0.40000  0.40000  0.00000  1.0000
  Mg  Mg178     1.0  0.45000  0.45000  0.00000  1.0000
  Mg  Mg179     1.0  0.45000  0.41667  0.05000  1.0000
  Mg  Mg180     1.0  0.40000  0.46667  0.05000  1.0000
  Mg  Mg181     1.0  0.50000  0.40000  0.00000  1.0000
  Mg  Mg182     1.0  0.55000  0.45000  0.00000  1.0000
  Mg  Mg183     1.0  0.55000  0.41667  0.05000  1.0000
  Mg  Mg184     1.0  0.50000  0.46667  0.05000  1.0000
  Mg  Mg185     1.0  0.60000  0.40000  0.00000  1.0000
  Mg  Mg186     1.0  0.65000  0.45000  0.00000  1.0000
  Mg  Mg187     1.0  0.65000  0.41667  0.05000  1.0000
  Mg  Mg188     1.0  0.60000  0.46667  0.05000  1.0000
  Mg  Mg189     1.0  0.70000  0.40000  0.00000  1.0000
  Mg  Mg190     1.0  0.75000  0.45000  0.00000  1.0000
  Mg  Mg191     1.0  0.75000  0.41667  0.05000  1.0000
  Mg  Mg192     1.0  0.70000  0.46667  0.05000  1.0000
  Mg  Mg193     1.0  0.80000  0.40000  0.00000  1.0000
  Mg  Mg194     1.0  0.85000  0.45000  0.00000  1.0000
  Mg  Mg195     1.0  0.85000  0.41667  0.05000  1.0000
  Mg  Mg196     1.0  0.80000  0.46667  0.05000  1.0000
  Mg  Mg197     1.0  0.90000  0.40000  0.00000  1.0000
  Mg  Mg198     1.0  0.95000  0.45000  0.00000  1.0000
  Mg  Mg199     1.0  0.95000  0.41667  0.05000  1.0000
  Mg  Mg200     1.0  0.90000  0.46667  0.05000  1.0000
  Mg  Mg201     1.0  0.00000  0.50000  0.00000  1.0000
  Mg  Mg202     1.0  0.05000  0.55000  0.00000  1.0000
  Mg  Mg203     1.0  0.05000  0.51667  0.05000  1.0000
  Mg  Mg204     1.0  0.00000  0.56667  0.05000  1.0000
  Mg  Mg205     1.0  0.10000  0.50000  0.00000  1.0000
  Mg  Mg206     1.0  0.15000  0.55000  0.00000  1.0000
  Mg  Mg207     1.0  0.15000  0.51667  0.05000  1.0000
  Mg  Mg208     1.0  0.10000  0.56667  0.05000  1.0000
  Mg  Mg209     1.0  0.20000  0.50000  0.00000  1.0000
  Mg  Mg210     1.0  0.25000  0.55000  0.00000  1.0000
  Mg  Mg211     1.0  0.25000  0.51667  0.05000  1.0000
  Mg  Mg212     1.0  0.20000  0.56667  0.05000  1.0000
  Mg  Mg213     1.0  0.30000  0.50000  0.00000  1.0000
  Mg  Mg214     1.0  0.35000  0.55000  0.00000  1.0000
  Mg  Mg215     1.0  0.35000  0.51667  0.05000  1.0000
  Mg  Mg216     1.0  0.30000  0.56667  0.05000  1.0000
  Mg  Mg217     1.0  0.40000  0.50000  0.00000  1.0000
  Mg  Mg218     1.0  0.45000  0.55000  0.00000  1.0000
  Mg  Mg219     1.0  0.45000  0.51667  0.05000  1.0000
  Mg  Mg220     1.0  0.40000  0.56667  0.05000  1.0000
  Mg  Mg221     1.0  0.50000  0.50000  0.00000  1.0000
  Mg  Mg222     1.0  0.55000  0.55000  0.00000  1.0000
  Mg  Mg223     1.0  0.55000  0.51667  0.05000  1.0000
  Mg  Mg224     1.0  0.50000  0.56667  0.05000  1.0000
  Mg  Mg225     1.0  0.60000  0.50000  0.00000  1.0000
  Mg  Mg226     1.0  0.65000  0.55000  0.00000  1.0000
  Mg  Mg227     1.0  0.65000  0.51667  0.05000  1.0000
  Mg  Mg228     1.0  0.60000  0.56667  0.05000  1.0000
  Mg  Mg229     1.0  0.70000  0.50000  0.00000  1.0000
  Mg  Mg230     1.0  0.75000  0.55000  0.00000  1.0000
  Mg  Mg231     1.0  0.75000  0.51667  0.05000  1.0000
  Mg  Mg232     1.0  0.70000  0.56667  0.05000  1.0000
  Mg  Mg233     1.0  0.80000  0.50000  0.00000  1.0000
  Mg  Mg234     1.0  0.85000  0.55000  0.00000  1.0000
  Mg  Mg235     1.0  0.85000  0.51667  0.05000  1.0000
  Mg  Mg236     1.0  0.80000  0.56667  0.05000  1.0000
  Mg  Mg237     1.0  0.90000  0.50000  0.00000  1.0000
  Mg  Mg238     1.0  0.95000  0.55000  0.00000  1.0000
  Mg  Mg239     1.0  0.95000  0.51667  0.05000  1.0000
  Mg  Mg240     1.0  0.90000  0.56667  0.05000  1.0000
  Mg  Mg241     1.0  0.00000  0.60000  0.00000  1.0000
  Mg  Mg242     1.0  0.05000  0.65000  0.00000  1.0000
  Mg  Mg243     1.0  0.05000  0.61667  0.05000  1.0000
  Mg  Mg244     1.0  0.00000  0.66667  0.05000  1.0000
  Mg  Mg245     1.0  0.10000  0.60000  0.00000  1.0000
  Mg  Mg246     1.0  0.15000  0.65000  0.00000  1.0000
  Mg  Mg247     1.0  0.15000  0.61667  0.05000  1.0000
  Mg  Mg248     1.0  0.10000  0.66667  0.05000  1.0000
  Mg  Mg249     1.0  0.20000  0.60000  0.00000  1.0000
  Mg  Mg250     1.0  0.25000  0.65000  0.00000  1.0000
  Mg  Mg251     1.0  0.25000  0.61667  0.05000  1.0000
  Mg  Mg252     1.0  0.20000  0.66667  0.05000  1.0000
  Mg  Mg253     1.0  0.30000  0.60000  0.00000  1.0000
  Mg  Mg254     1.0  0.35000  0.65000  0.00000  1.0000
  Mg  Mg255     1.0  0.35000  0.61667  0.05000  1.0000
  Mg  Mg256     1.0  0.30000  0.66667  0.05000  1.0000
  Mg  Mg257     1.0  0.40000  0.60000  0.00000  1.0000
  Mg  Mg258     1.0  0.45000  0.65000  0.00000  1.0000
  Mg  Mg259     1.0  0.45000  0.61667  0.05000  1.0000
  Mg  Mg260     1.0  0.40000  0.66667  0.05000  1.0000
  Mg  Mg261     1.0  0.50000  0.60000  0.00000  1.0000
  Mg  Mg262     1.0  0.55000  0.65000  0.00000  1.0000
  Mg  Mg263     1.0  0.55000  0.61667  0.05000  1.0000
  Mg  Mg264     1.0  0.50000  0.66667  0.05000  1.0000
  Mg  Mg265     1.0  0.60000  0.60000  0.00000  1.0000
  Mg  Mg266     1.0  0.65000  0.65000  0.00000  1.0000
  Mg  Mg267     1.0  0.65000  0.61667  0.05000  1.0000
  Mg  Mg268     1.0  0.60000  0.66667  0.05000  1.0000
  Mg  Mg269     1.0  0.70000  0.60000  0.00000  1.0000
  Mg  Mg270     1.0  0.75000  0.65000  0.00000  1.0000
  Mg  Mg271     1.0  0.75000  0.61667  0.05000  1.0000
  Mg  Mg272     1.0  0.70000  0.66667  0.05000  1.0000
  Mg  Mg273     1.0  0.80000  0.60000  0.00000  1.0000
  Mg  Mg274     1.0  0.85000  0.65000  0.00000  1.0000
  Mg  Mg275     1.0  0.85000  0.61667  0.05000  1.0000
  Mg  Mg276     1.0  0.80000  0.66667  0.05000  1.0000
  Mg  Mg277     1.0  0.90000  0.60000  0.00000  1.0000
  Mg  Mg278     1.0  0.95000  0.65000  0.00000  1.0000
  Mg  Mg279     1.0  0.95000  0.61667  0.05000  1.0000
  Mg  Mg280     1.0  0.90000  0.66667  0.05000  1.0000
  Mg  Mg281     1.0  0.00000  0.70000  0.00000  1.0000
  Mg  Mg282     1.0  0.05000  0.75000  0.00000  1.0000
  Mg  Mg283     1.0  0.05000  0.71667  0.05000  1.0000
  Mg  Mg284     1.0  0.00000  0.76667  0.05000  1.0000
  Mg  Mg285     1.0  0.10000  0.70000  0.00000  1.0000
  Mg  Mg286     1.0  0.15000  0.75000  0.00000  1.0000
  Mg  Mg287     1.0  0.15000  0.71667  0.05000  1.0000
  Mg  Mg288     1.0  0.10000  0.76667  0.05000  1.0000
  Mg  Mg289     1.0  0.20000  0.70000  0.00000  1.0000
  Mg  Mg290     1.0  0.25000  0.75000  0.00000  1.0000
  Mg  Mg291     1.0  0.25000  0.71667  0.05000  1.0000
  Mg  Mg292     1.0  0.20000  0.76667  0.05000  1.0000
  Mg  Mg293     1.0  0.30000  0.70000  0.00000  1.0000
  Mg  Mg294     1.0  0.35000  0.75000  0.00000  1.0000
  Mg  Mg295     1.0  0.35000  0.71667  0.05000  1.0000
  Mg  Mg296     1.0  0.30000  0.76667  0.05000  1.0000
  Mg  Mg297     1.0  0.40000  0.70000  0.00000  1.0000
  Mg  Mg298     1.0  0.45000  0.75000  0.00000  1.0000
  Mg  Mg299     1.0  0.45000  0.71667  0.05000  1.0000
  Mg  Mg300     1.0  0.40000  0.76667  0.05000  1.0000
  Mg  Mg301     1.0  0.50000  0.70000  0.00000  1.0000
  Mg  Mg302     1.0  0.55000  0.75000  0.00000  1.0000
  Mg  Mg303     1.0  0.55000  0.71667  0.05000  1.0000
  Mg  Mg304     1.0  0.50000  0.76667  0.05000  1.0000
  Mg  Mg305     1.0  0.60000  0.70000  0.00000  1.0000
  Mg  Mg306     1.0  0.65000  0.75000  0.00000  1.0000
  Mg  Mg307     1.0  0.65000  0.71667  0.05000  1.0000
  Mg  Mg308     1.0  0.60000  0.76667  0.05000  1.0000
  Mg  Mg309     1.0  0.70000  0.70000  0.00000  1.0000
  Mg  Mg310     1.0  0.75000  0.75000  0.00000  1.0000
  Mg  Mg311     1.0  0.75000  0.71667  0.05000  1.0000
  Mg  Mg312     1.0  0.70000  0.76667  0.05000  1.0000
  Mg  Mg313     1.0  0.80000  0.70000  0.00000  1.0000
  Mg  Mg314     1.0  0.85000  0.75000  0.00000  1.0000
  Mg  Mg315     1.0  0.85000  0.71667  0.05000  1.0000
  Mg  Mg316     1.0  0.80000  0.76667  0.05000  1.0000
  Mg  Mg317     1.0  0.90000  0.70000  0.00000  1.0000
  Mg  Mg318     1.0  0.95000  0.75000  0.00000  1.0000
  Mg  Mg319     1.0  0.95000  0.71667  0.05000  1.0000
  Mg  Mg320     1.0  0.90000  0.76667  0.05000  1.0000
  Mg  Mg321     1.0  0.00000  0.80000  0.00000  1.0000
  Mg  Mg322     1.0  0.05000  0.85000  0.00000  1.0000
  Mg  Mg323     1.0  0.05000  0.81667  0.05000  1.0000
  Mg  Mg324     1.0  0.00000  0.86667  0.05000  1.0000
  Mg  Mg325     1.0  0.10000  0.80000  0.00000  1.0000
  Mg  Mg326     1.0  0.15000  0.85000  0.00000  1.0000
  Mg  Mg327     1.0  0.15000  0.81667  0.05000  1.0000
  Mg  Mg328     1.0  0.10000  0.86667  0.05000  1.0000
  Mg  Mg329     1.0  0.20000  0.80000  0.00000  1.0000
  Mg  Mg330     1.0  0.25000  0.85000  0.00000  1.0000
  Mg  Mg331     1.0  0.25000  0.81667  0.05000  1.0000
  Mg  Mg332     1.0  0.20000  0.86667  0.05000  1.0000
  Mg  Mg333     1.0  0.30000  0.80000  0.00000  1.0000
  Mg  Mg334     1.0  0.35000  0.85000  0.00000  1.0000
  Mg  Mg335     1.0  0.35000  0.81667  0.05000  1.0000
  Mg  Mg336     1.0  0.30000  0.86667  0.05000  1.0000
  Mg  Mg337     1.0  0.40000  0.80000  0.00000  1.0000
  Mg  Mg338     1.0  0.45000  0.85000  0.00000  1.0000
  Mg  Mg339     1.0  0.45000  0.81667  0.05000  1.0000
  Mg  Mg340     1.0  0.40000  0.86667  0.05000  1.0000
  Mg  Mg341     1.0  0.50000  0.80000  0.00000  1.0000
  Mg  Mg342     1.0  0.55000  0.85000  0.00000  1.0000
  Mg  Mg343     1.0  0.55000  0.81667  0.05000  1.0000
  Mg  Mg344     1.0  0.50000  0.86667  0.05000  1.0000
  Mg  Mg345     1.0  0.60000  0.80000  0.00000  1.0000
  Mg  Mg346     1.0  0.65000  0.85000  0.00000  1.0000
  Mg  Mg347     1.0  0.65000  0.81667  0.05000  1.0000
  Mg  Mg348     1.0  0.60000  0.86667  0.05000  1.0000
  Mg  Mg349     1.0  0.70000  0.80000  0.00000  1.0000
  Mg  Mg350     1.0  0.75000  0.85000  0.00000  1.0000
  Mg  Mg351     1.0  0.75000  0.81667  0.05000  1.0000
  Mg  Mg352     1.0  0.70000  0.86667  0.05000  1.0000
  Mg  Mg353     1.0  0.80000  0.80000  0.00000  1.0000
  Mg  Mg354     1.0  0.85000  0.85000  0.00000  1.0000
  Mg  Mg355     1.0  0.85000  0.81667  0.05000  1.0000
  Mg  Mg356     1.0  0.80000  0.86667  0.05000  1.0000
  Mg  Mg357     1.0  0.90000  0.80000  0.00000  1.0000
  Mg  Mg358     1.0  0.95000  0.85000  0.00000  1.0000
  Mg  Mg359     1.0  0.95000  0.81667  0.05000  1.0000
  Mg  Mg360     1.0  0.90000  0.86667  0.05000  1.0000
  Mg  Mg361     1.0  0.00000  0.90000  0.00000  1.0000
  Mg  Mg362     1.0  0.05000  0.95000  0.00000  1.0000
  Mg  Mg363     1.0  0.05000  0.91667  0.05000  1.0000
  Mg  Mg364     1.0  0.00000  0.96667  0.05000  1.0000
  Mg  Mg365     1.0  0.10000  0.90000  0.00000  1.0000
  Mg  Mg366     1.0  0.15000  0.95000  0.00000  1.0000
  Mg  Mg367     1.0  0.15000  0.91667  0.05000  1.0000
  Mg  Mg368     1.0  0.10000  0.96667  0.05000  1.0000
  Mg  Mg369     1.0  0.20000  0.90000  0.00000  1.0000
  Mg  Mg370     1.0  0.25000  0.95000  0.00000  1.0000
  Mg  Mg371     1.0  0.25000  0.91667  0.05000  1.0000
  Mg  Mg372     1.0  0.20000  0.96667  0.05000  1.0000
  Mg  Mg373     1.0  0.30000  0.90000  0.00000  1.0000
  Mg  Mg374     1.0  0.35000  0.95000  0.00000  1.0000
  Mg  Mg375     1.0  0.35000  0.91667  0.05000  1.0000
  Mg  Mg376     1.0  0.30000  0.96667  0.05000  1.0000
  Mg  Mg377     1.0  0.40000  0.90000  0.00000  1.0000
  Mg  Mg378     1.0  0.45000  0.95000  0.00000  1.0000
  Mg  Mg379     1.0  0.45000  0.91667  0.05000  1.0000
  Mg  Mg380     1.0  0.40000  0.96667  0.05000  1.0000
  Mg  Mg381     1.0  0.50000  0.90000  0.00000  1.0000
  Mg  Mg382     1.0  0.55000  0.95000  0.00000  1.0000
  Mg  Mg383     1.0  0.55000  0.91667  0.05000  1.0000
  Mg  Mg384     1.0  0.50000  0.96667  0.05000  1.0000
  Mg  Mg385     1.0  0.60000  0.90000  0.00000  1.0000
  Mg  Mg386     1.0  0.65000  0.95000  0.00000  1.0000
  Mg  Mg387     1.0  0.65000  0.91667  0.05000  1.0000
  Mg  Mg388     1.0  0.60000  0.96667  0.05000  1.0000
  Mg  Mg389     1.0  0.70000  0.90000  0.00000  1.0000
  Mg  Mg390     1.0  0.75000  0.95000  0.00000  1.0000
  Mg  Mg391     1.0  0.75000  0.91667  0.05000  1.0000
  Mg  Mg392     1.0  0.70000  0.96667  0.05000  1.0000
  Mg  Mg393     1.0  0.80000  0.90000  0.00000  1.0000
  Mg  Mg394     1.0  0.85000  0.95000  0.00000  1.0000
  Mg  Mg395     1.0  0.85000  0.91667  0.05000  1.0000
  Mg  Mg396     1.0  0.80000  0.96667  0.05000  1.0000
  Mg  Mg397     1.0  0.90000  0.90000  0.00000  1.0000
  Mg  Mg398     1.0  0.95000  0.95000  0.00000  1.0000
  Mg  Mg399     1.0  0.95000  0.91667  0.05000  1.0000
  Mg  Mg400     1.0  0.90000  0.96667  0.05000  1.0000
  Mg  Mg401     1.0  0.00000  0.00000  0.10000  1.0000
  Mg  Mg402     1.0  0.05000  0.05000  0.10000  1.0000
  Mg  Mg403     1.0  0.05000  0.01667  0.15000  1.0000
  Mg  Mg404     1.0  0.00000  0.06667  0.15000  1.0000
  Mg  Mg405     1.0  0.10000  0.00000  0.10000  1.0000
  Mg  Mg406     1.0  0.15000  0.05000  0.10000  1.0000
  Mg  Mg407     1.0  0.15000  0.01667  0.15000  1.0000
  Mg  Mg408     1.0  0.10000  0.06667  0.15000  1.0000
  Mg  Mg409     1.0  0.20000  0.00000  0.10000  1.0000
  Mg  Mg410     1.0  0.25000  0.05000  0.10000  1.0000
  Mg  Mg411     1.0  0.25000  0.01667  0.15000  1.0000
  Mg  Mg412     1.0  0.20000  0.06667  0.15000  1.0000
  Mg  Mg413     1.0  0.30000  0.00000  0.10000  1.0000
  Mg  Mg414     1.0  0.35000  0.05000  0.10000  1.0000
  Mg  Mg415     1.0  0.35000  0.01667  0.15000  1.0000
  Mg  Mg416     1.0  0.30000  0.06667  0.15000  1.0000
  Mg  Mg417     1.0  0.40000  0.00000  0.10000  1.0000
  Mg  Mg418     1.0  0.45000  0.05000  0.10000  1.0000
  Mg  Mg419     1.0  0.45000  0.01667  0.15000  1.0000
  Mg  Mg420     1.0  0.40000  0.06667  0.15000  1.0000
  Mg  Mg421     1.0  0.50000  0.00000  0.10000  1.0000
  Mg  Mg422     1.0  0.55000  0.05000  0.10000  1.0000
  Mg  Mg423     1.0  0.55000  0.01667  0.15000  1.0000
  Mg  Mg424     1.0  0.50000  0.06667  0.15000  1.0000
  Mg  Mg425     1.0  0.60000  0.00000  0.10000  1.0000
  Mg  Mg426     1.0  0.65000  0.05000  0.10000  1.0000
  Mg  Mg427     1.0  0.65000  0.01667  0.15000  1.0000
  Mg  Mg428     1.0  0.60000  0.06667  0.15000  1.0000
  Mg  Mg429     1.0  0.70000  0.00000  0.10000  1.0000
  Mg  Mg430     1.0  0.75000  0.05000  0.10000  1.0000
  Mg  Mg431     1.0  0.75000  0.01667  0.15000  1.0000
  Mg  Mg432     1.0  0.70000  0.06667  0.15000  1.0000
  Mg  Mg433     1.0  0.80000  0.00000  0.10000  1.0000
  Mg  Mg434     1.0  0.85000  0.05000  0.10000  1.0000
  Mg  Mg435     1.0  0.85000  0.01667  0.15000  1.0000
  Mg  Mg436     1.0  0.80000  0.06667  0.15000  1.0000
  Mg  Mg437     1.0  0.90000  0.00000  0.10000  1.0000
  Mg  Mg438     1.0  0.95000  0.05000  0.10000  1.0000
  Mg  Mg439     1.0  0.95000  0.01667  0.15000  1.0000
  Mg  Mg440     1.0  0.90000  0.06667  0.15000  1.0000
  Mg  Mg441     1.0  0.00000  0.10000  0.10000  1.0000
  Mg  Mg442     1.0  0.05000  0.15000  0.10000  1.0000
  Mg  Mg443     1.0  0.05000  0.11667  0.15000  1.0000
  Mg  Mg444     1.0  0.00000  0.16667  0.15000  1.0000
  Mg  Mg445     1.0  0.10000  0.10000  0.10000  1.0000
  Mg  Mg446     1.0  0.15000  0.15000  0.10000  1.0000
  Mg  Mg447     1.0  0.15000  0.11667  0.15000  1.0000
  Mg  Mg448     1.0  0.10000  0.16667  0.15000  1.0000
  Mg  Mg449     1.0  0.20000  0.10000  0.10000  1.0000
  Mg  Mg450     1.0  0.25000  0.15000  0.10000  1.0000
  Mg  Mg451     1.0  0.25000  0.11667  0.15000  1.0000
  Mg  Mg452     1.0  0.20000  0.16667  0.15000  1.0000
  Mg  Mg453     1.0  0.30000  0.10000  0.10000  1.0000
  Mg  Mg454     1.0  0.35000  0.15000  0.10000  1.0000
  Mg  Mg455     1.0  0.35000  0.11667  0.15000  1.0000
  Mg  Mg456     1.0  0.30000  0.16667  0.15000  1.0000
  Mg  Mg457     1.0  0.40000  0.10000  0.10000  1.0000
  Mg  Mg458     1.0  0.45000  0.15000  0.10000  1.0000
  Mg  Mg459     1.0  0.45000  0.11667  0.15000  1.0000
  Mg  Mg460     1.0  0.40000  0.16667  0.15000  1.0000
  Mg  Mg461     1.0  0.50000  0.10000  0.10000  1.0000
  Mg  Mg462     1.0  0.55000  0.15000  0.10000  1.0000
  Mg  Mg463     1.0  0.55000  0.11667  0.15000  1.0000
  Mg  Mg464     1.0  0.50000  0.16667  0.15000  1.0000
  Mg  Mg465     1.0  0.60000  0.10000  0.10000  1.0000
  Mg  Mg466     1.0  0.65000  0.15000  0.10000  1.0000
  Mg  Mg467     1.0  0.65000  0.11667  0.15000  1.0000
  Mg  Mg468     1.0  0.60000  0.16667  0.15000  1.0000
  Mg  Mg469     1.0  0.70000  0.10000  0.10000  1.0000
  Mg  Mg470     1.0  0.75000  0.15000  0.10000  1.0000
  Mg  Mg471     1.0  0.75000  0.11667  0.15000  1.0000
  Mg  Mg472     1.0  0.70000  0.16667  0.15000  1.0000
  Mg  Mg473     1.0  0.80000  0.10000  0.10000  1.0000
  Mg  Mg474     1.0  0.85000  0.15000  0.10000  1.0000
  Mg  Mg475     1.0  0.85000  0.11667  0.15000  1.0000
  Mg  Mg476     1.0  0.80000  0.16667  0.15000  1.0000
  Mg  Mg477     1.0  0.90000  0.10000  0.10000  1.0000
  Mg  Mg478     1.0  0.95000  0.15000  0.10000  1.0000
  Mg  Mg479     1.0  0.95000  0.11667  0.15000  1.0000
  Mg  Mg480     1.0  0.90000  0.16667  0.15000  1.0000
  Mg  Mg481     1.0  0.00000  0.20000  0.10000  1.0000
  Mg  Mg482     1.0  0.05000  0.25000  0.10000  1.0000
  Mg  Mg483     1.0  0.05000  0.21667  0.15000  1.0000
  Mg  Mg484     1.0  0.00000  0.26667  0.15000  1.0000
  Mg  Mg485     1.0  0.10000  0.20000  0.10000  1.0000
  Mg  Mg486     1.0  0.15000  0.25000  0.10000  1.0000
  Mg  Mg487     1.0  0.15000  0.21667  0.15000  1.0000
  Mg  Mg488     1.0  0.10000  0.26667  0.15000  1.0000
  Mg  Mg489     1.0  0.20000  0.20000  0.10000  1.0000
  Mg  Mg490     1.0  0.25000  0.25000  0.10000  1.0000
  Mg  Mg491     1.0  0.25000  0.21667  0.15000  1.0000
  Mg  Mg492     1.0  0.20000  0.26667  0.15000  1.0000
  Mg  Mg493     1.0  0.30000  0.20000  0.10000  1.0000
  Mg  Mg494     1.0  0.35000  0.25000  0.10000  1.0000
  Mg  Mg495     1.0  0.35000  0.21667  0.15000  1.0000
  Mg  Mg496     1.0  0.30000  0.26667  0.15000  1.0000
  Mg  Mg497     1.0  0.40000  0.20000  0.10000  1.0000
  Mg  Mg498     1.0  0.45000  0.25000  0.10000  1.0000
  Mg  Mg499     1.0  0.45000  0.21667  0.15000  1.0000
  Mg  Mg500     1.0  0.40000  0.26667  0.15000  1.0000
  Mg  Mg501     1.0  0.50000  0.20000  0.10000  1.0000
  Mg  Mg502     1.0  0.55000  0.25000  0.10000  1.0000
  Mg  Mg503     1.0  0.55000  0.21667  0.15000  1.0000
  Mg  Mg504     1.0  0.50000  0.26667  0.15000  1.0000
  Mg  Mg505     1.0  0.60000  0.20000  0.10000  1.0000
  Mg  Mg506     1.0  0.65000  0.25000  0.10000  1.0000
  Mg  Mg507     1.0  0.65000  0.21667  0.15000  1.0000
  Mg  Mg508     1.0  0.60000  0.26667  0.15000  1.0000
  Mg  Mg509     1.0  0.70000  0.20000  0.10000  1.0000
  Mg  Mg510     1.0  0.75000  0.25000  0.10000  1.0000
  Mg  Mg511     1.0  0.75000  0.21667  0.15000  1.0000
  Mg  Mg512     1.0  0.70000  0.26667  0.15000  1.0000
  Mg  Mg513     1.0  0.80000  0.20000  0.10000  1.0000
  Mg  Mg514     1.0  0.85000  0.25000  0.10000  1.0000
  Mg  Mg515     1.0  0.85000  0.21667  0.15000  1.0000
  Mg  Mg516     1.0  0.80000  0.26667  0.15000  1.0000
  Mg  Mg517     1.0  0.90000  0.20000  0.10000  1.0000
  Mg  Mg518     1.0  0.95000  0.25000  0.10000  1.0000
  Mg  Mg519     1.0  0.95000  0.21667  0.15000  1.0000
  Mg  Mg520     1.0  0.90000  0.26667  0.15000  1.0000
  Mg  Mg521     1.0  0.00000  0.30000  0.10000  1.0000
  Mg  Mg522     1.0  0.05000  0.35000  0.10000  1.0000
  Mg  Mg523     1.0  0.05000  0.31667  0.15000  1.0000
  Mg  Mg524     1.0  0.00000  0.36667  0.15000  1.0000
  Mg  Mg525     1.0  0.10000  0.30000  0.10000  1.0000
  Mg  Mg526     1.0  0.15000  0.35000  0.10000  1.0000
  Mg  Mg527     1.0  0.15000  0.31667  0.15000  1.0000
  Mg  Mg528     1.0  0.10000  0.36667  0.15000  1.0000
  Mg  Mg529     1.0  0.20000  0.30000  0.10000  1.0000
  Mg  Mg530     1.0  0.25000  0.35000  0.10000  1.0000
  Mg  Mg531     1.0  0.25000  0.31667  0.15000  1.0000
  Mg  Mg532     1.0  0.20000  0.36667  0.15000  1.0000
  Mg  Mg533     1.0  0.30000  0.30000  0.10000  1.0000
  Mg  Mg534     1.0  0.35000  0.35000  0.10000  1.0000
  Mg  Mg535     1.0  0.35000  0.31667  0.15000  1.0000
  Mg  Mg536     1.0  0.30000  0.36667  0.15000  1.0000
  Mg  Mg537     1.0  0.40000  0.30000  0.10000  1.0000
  Mg  Mg538     1.0  0.45000  0.35000  0.10000  1.0000
  Mg  Mg539     1.0  0.45000  0.31667  0.15000  1.0000
  Mg  Mg540     1.0  0.40000  0.36667  0.15000  1.0000
  Mg  Mg541     1.0  0.50000  0.30000  0.10000  1.0000
  Mg  Mg542     1.0  0.55000  0.35000  0.10000  1.0000
  Mg  Mg543     1.0  0.55000  0.31667  0.15000  1.0000
  Mg  Mg544     1.0  0.50000  0.36667  0.15000  1.0000
  Mg  Mg545     1.0  0.60000  0.30000  0.10000  1.0000
  Mg  Mg546     1.0  0.65000  0.35000  0.10000  1.0000
  Mg  Mg547     1.0  0.65000  0.31667  0.15000  1.0000
  Mg  Mg548     1.0  0.60000  0.36667  0.15000  1.0000
  Mg  Mg549     1.0  0.70000  0.30000  0.10000  1.0000
  Mg  Mg550     1.0  0.75000  0.35000  0.10000  1.0000
  Mg  Mg551     1.0  0.75000  0.31667  0.15000  1.0000
  Mg  Mg552     1.0  0.70000  0.36667  0.15000  1.0000
  Mg  Mg553     1.0  0.80000  0.30000  0.10000  1.0000
  Mg  Mg554     1.0  0.85000  0.35000  0.10000  1.0000
  Mg  Mg555     1.0  0.85000  0.31667  0.15000  1.0000
  Mg  Mg556     1.0  0.80000  0.36667  0.15000  1.0000
  Mg  Mg557     1.0  0.90000  0.30000  0.10000  1.0000
  Mg  Mg558     1.0  0.95000  0.35000  0.10000  1.0000
  Mg  Mg559     1.0  0.95000  0.31667  0.15000  1.0000
  Mg  Mg560     1.0  0.90000  0.36667  0.15000  1.0000
  Mg  Mg561     1.0  0.00000  0.40000  0.10000  1.0000
  Mg  Mg562     1.0  0.05000  0.45000  0.10000  1.0000
  Mg  Mg563     1.0  0.05000  0.41667  0.15000  1.0000
  Mg  Mg564     1.0  0.00000  0.46667  0.15000  1.0000
  Mg  Mg565     1.0  0.10000  0.40000  0.10000  1.0000
  Mg  Mg566     1.0  0.15000  0.45000  0.10000  1.0000
  Mg  Mg567     1.0  0.15000  0.41667  0.15000  1.0000
  Mg  Mg568     1.0  0.10000  0.46667  0.15000  1.0000
  Mg  Mg569     1.0  0.20000  0.40000  0.10000  1.0000
  Mg  Mg570     1.0  0.25000  0.45000  0.10000  1.0000
  Mg  Mg571     1.0  0.25000  0.41667  0.15000  1.0000
  Mg  Mg572     1.0  0.20000  0.46667  0.15000  1.0000
  Mg  Mg573     1.0  0.30000  0.40000  0.10000  1.0000
  Mg  Mg574     1.0  0.35000  0.45000  0.10000  1.0000
  Mg  Mg575     1.0  0.35000  0.41667  0.15000  1.0000
  Mg  Mg576     1.0  0.30000  0.46667  0.15000  1.0000
  Mg  Mg577     1.0  0.40000  0.40000  0.10000  1.0000
  Mg  Mg578     1.0  0.45000  0.45000  0.10000  1.0000
  Mg  Mg579     1.0  0.45000  0.41667  0.15000  1.0000
  Mg  Mg580     1.0  0.40000  0.46667  0.15000  1.0000
  Mg  Mg581     1.0  0.50000  0.40000  0.10000  1.0000
  Mg  Mg582     1.0  0.55000  0.45000  0.10000  1.0000
  Mg  Mg583     1.0  0.55000  0.41667  0.15000  1.0000
  Mg  Mg584     1.0  0.50000  0.46667  0.15000  1.0000
  Mg  Mg585     1.0  0.60000  0.40000  0.10000  1.0000
  Mg  Mg586     1.0  0.65000  0.45000  0.10000  1.0000
  Mg  Mg587     1.0  0.65000  0.41667  0.15000  1.0000
  Mg  Mg588     1.0  0.60000  0.46667  0.15000  1.0000
  Mg  Mg589     1.0  0.70000  0.40000  0.10000  1.0000
  Mg  Mg590     1.0  0.75000  0.45000  0.10000  1.0000
  Mg  Mg591     1.0  0.75000  0.41667  0.15000  1.0000
  Mg  Mg592     1.0  0.70000  0.46667  0.15000  1.0000
  Mg  Mg593     1.0  0.80000  0.40000  0.10000  1.0000
  Mg  Mg594     1.0  0.85000  0.45000  0.10000  1.0000
  Mg  Mg595     1.0  0.85000  0.41667  0.15000  1.0000
  Mg  Mg596     1.0  0.80000  0.46667  0.15000  1.0000
  Mg  Mg597     1.0  0.90000  0.40000  0.10000  1.0000
  Mg  Mg598     1.0  0.95000  0.45000  0.10000  1.0000
  Mg  Mg599     1.0  0.95000  0.41667  0.15000  1.0000
  Mg  Mg600     1.0  0.90000  0.46667  0.15000  1.0000
  Mg  Mg601     1.0  0.00000  0.50000  0.10000  1.0000
  Mg  Mg602     1.0  0.05000  0.55000  0.10000  1.0000
  Mg  Mg603     1.0  0.05000  0.51667  0.15000  1.0000
  Mg  Mg604     1.0  0.00000  0.56667  0.15000  1.0000
  Mg  Mg605     1.0  0.10000  0.50000  0.10000  1.0000
  Mg  Mg606     1.0  0.15000  0.55000  0.10000  1.0000
  Mg  Mg607     1.0  0.15000  0.51667  0.15000  1.0000
  Mg  Mg608     1.0  0.10000  0.56667  0.15000  1.0000
  Mg  Mg609     1.0  0.20000  0.50000  0.10000  1.0000
  Mg  Mg610     1.0  0.25000  0.55000  0.10000  1.0000
  Mg  Mg611     1.0  0.25000  0.51667  0.15000  1.0000
  Mg  Mg612     1.0  0.20000  0.56667  0.15000  1.0000
  Mg  Mg613     1.0  0.30000  0.50000  0.10000  1.0000
  Mg  Mg614     1.0  0.35000  0.55000  0.10000  1.0000
  Mg  Mg615     1.0  0.35000  0.51667  0.15000  1.0000
  Mg  Mg616     1.0  0.30000  0.56667  0.15000  1.0000
  Mg  Mg617     1.0  0.40000  0.50000  0.10000  1.0000
  Mg  Mg618     1.0  0.45000  0.55000  0.10000  1.0000
  Mg  Mg619     1.0  0.45000  0.51667  0.15000  1.0000
  Mg  Mg620     1.0  0.40000  0.56667  0.15000  1.0000
  Mg  Mg621     1.0  0.50000  0.50000  0.10000  1.0000
  Mg  Mg622     1.0  0.55000  0.55000  0.10000  1.0000
  Mg  Mg623     1.0  0.55000  0.51667  0.15000  1.0000
  Mg  Mg624     1.0  0.50000  0.56667  0.15000  1.0000
  Mg  Mg625     1.0  0.60000  0.50000  0.10000  1.0000
  Mg  Mg626     1.0  0.65000  0.55000  0.10000  1.0000
  Mg  Mg627     1.0  0.65000  0.51667  0.15000  1.0000
  Mg  Mg628     1.0  0.60000  0.56667  0.15000  1.0000
  Mg  Mg629     1.0  0.70000  0.50000  0.10000  1.0000
  Mg  Mg630     1.0  0.75000  0.55000  0.10000  1.0000
  Mg  Mg631     1.0  0.75000  0.51667  0.15000  1.0000
  Mg  Mg632     1.0  0.70000  0.56667  0.15000  1.0000
  Mg  Mg633     1.0  0.80000  0.50000  0.10000  1.0000
  Mg  Mg634     1.0  0.85000  0.55000  0.10000  1.0000
  Mg  Mg635     1.0  0.85000  0.51667  0.15000  1.0000
  Mg  Mg636     1.0  0.80000  0.56667  0.15000  1.0000
  Mg  Mg637     1.0  0.90000  0.50000  0.10000  1.0000
  Mg  Mg638     1.0  0.95000  0.55000  0.10000  1.0000
  Mg  Mg639     1.0  0.95000  0.51667  0.15000  1.0000
  Mg  Mg640     1.0  0.90000  0.56667  0.15000  1.0000
  Mg  Mg641     1.0  0.00000  0.60000  0.10000  1.0000
  Mg  Mg642     1.0  0.05000  0.65000  0.10000  1.0000
  Mg  Mg643     1.0  0.05000  0.61667  0.15000  1.0000
  Mg  Mg644     1.0  0.00000  0.66667  0.15000  1.0000
  Mg  Mg645     1.0  0.10000  0.60000  0.10000  1.0000
  Mg  Mg646     1.0  0.15000  0.65000  0.10000  1.0000
  Mg  Mg647     1.0  0.15000  0.61667  0.15000  1.0000
  Mg  Mg648     1.0  0.10000  0.66667  0.15000  1.0000
  Mg  Mg649     1.0  0.20000  0.60000  0.10000  1.0000
  Mg  Mg650     1.0  0.25000  0.65000  0.10000  1.0000
  Mg  Mg651     1.0  0.25000  0.61667  0.15000  1.0000
  Mg  Mg652     1.0  0.20000  0.66667  0.15000  1.0000
  Mg  Mg653     1.0  0.30000  0.60000  0.10000  1.0000
  Mg  Mg654     1.0  0.35000  0.65000  0.10000  1.0000
  Mg  Mg655     1.0  0.35000  0.61667  0.15000  1.0000
  Mg  Mg656     1.0  0.30000  0.66667  0.15000  1.0000
  Mg  Mg657     1.0  0.40000  0.60000  0.10000  1.0000
  Mg  Mg658     1.0  0.45000  0.65000  0.10000  1.0000
  Mg  Mg659     1.0  0.45000  0.61667  0.15000  1.0000
  Mg  Mg660     1.0  0.40000  0.66667  0.15000  1.0000
  Mg  Mg661     1.0  0.50000  0.60000  0.10000  1.0000
  Mg  Mg662     1.0  0.55000  0.65000  0.10000  1.0000
  Mg  Mg663     1.0  0.55000  0.61667  0.15000  1.0000
  Mg  Mg664     1.0  0.50000  0.66667  0.15000  1.0000
  Mg  Mg665     1.0  0.60000  0.60000  0.10000  1.0000
  Mg  Mg666     1.0  0.65000  0.65000  0.10000  1.0000
  Mg  Mg667     1.0  0.65000  0.61667  0.15000  1.0000
  Mg  Mg668     1.0  0.60000  0.66667  0.15000  1.0000
  Mg  Mg669     1.0  0.70000  0.60000  0.10000  1.0000
  Mg  Mg670     1.0  0.75000  0.65000  0.10000  1.0000
  Mg  Mg671     1.0  0.75000  0.61667  0.15000  1.0000
  Mg  Mg672     1.0  0.70000  0.66667  0.15000  1.0000
  Mg  Mg673     1.0  0.80000  0.60000  0.10000  1.0000
  Mg  Mg674     1.0  0.85000  0.65000  0.10000  1.0000
  Mg  Mg675     1.0  0.85000  0.61667  0.15000  1.0000
  Mg  Mg676     1.0  0.80000  0.66667  0.15000  1.0000
  Mg  Mg677     1.0  0.90000  0.60000  0.10000  1.0000
  Mg  Mg678     1.0  0.95000  0.65000  0.10000  1.0000
  Mg  Mg679     1.0  0.95000  0.61667  0.15000  1.0000
  Mg  Mg680     1.0  0.90000  0.66667  0.15000  1.0000
  Mg  Mg681     1.0  0.00000  0.70000  0.10000  1.0000
  Mg  Mg682     1.0  0.05000  0.75000  0.10000  1.0000
  Mg  Mg683     1.0  0.05000  0.71667  0.15000  1.0000
  Mg  Mg684     1.0  0.00000  0.76667  0.15000  1.0000
  Mg  Mg685     1.0  0.10000  0.70000  0.10000  1.0000
  Mg  Mg686     1.0  0.15000  0.75000  0.10000  1.0000
  Mg  Mg687     1.0  0.15000  0.71667  0.15000  1.0000
  Mg  Mg688     1.0  0.10000  0.76667  0.15000  1.0000
  Mg  Mg689     1.0  0.20000  0.70000  0.10000  1.0000
  Mg  Mg690     1.0  0.25000  0.75000  0.10000  1.0000
  Mg  Mg691     1.0  0.25000  0.71667  0.15000  1.0000
  Mg  Mg692     1.0  0.20000  0.76667  0.15000  1.0000
  Mg  Mg693     1.0  0.30000  0.70000  0.10000  1.0000
  Mg  Mg694     1.0  0.35000  0.75000  0.10000  1.0000
  Mg  Mg695     1.0  0.35000  0.71667  0.15000  1.0000
  Mg  Mg696     1.0  0.30000  0.76667  0.15000  1.0000
  Mg  Mg697     1.0  0.40000  0.70000  0.10000  1.0000
  Mg  Mg698     1.0  0.45000  0.75000  0.10000  1.0000
  Mg  Mg699     1.0  0.45000  0.71667  0.15000  1.0000
  Mg  Mg700     1.0  0.40000  0.76667  0.15000  1.0000
  Mg  Mg701     1.0  0.50000  0.70000  0.10000  1.0000
  Mg  Mg702     1.0  0.55000  0.75000  0.10000  1.0000
  Mg  Mg703     1.0  0.55000  0.71667  0.15000  1.0000
  Mg  Mg704     1.0  0.50000  0.76667  0.15000  1.0000
  Mg  Mg705     1.0  0.60000  0.70000  0.10000  1.0000
  Mg  Mg706     1.0  0.65000  0.75000  0.10000  1.0000
  Mg  Mg707     1.0  0.65000  0.71667  0.15000  1.0000
  Mg  Mg708     1.0  0.60000  0.76667  0.15000  1.0000
  Mg  Mg709     1.0  0.70000  0.70000  0.10000  1.0000
  Mg  Mg710     1.0  0.75000  0.75000  0.10000  1.0000
  Mg  Mg711     1.0  0.75000  0.71667  0.15000  1.0000
  Mg  Mg712     1.0  0.70000  0.76667  0.15000  1.0000
  Mg  Mg713     1.0  0.80000  0.70000  0.10000  1.0000
  Mg  Mg714     1.0  0.85000  0.75000  0.10000  1.0000
  Mg  Mg715     1.0  0.85000  0.71667  0.15000  1.0000
  Mg  Mg716     1.0  0.80000  0.76667  0.15000  1.0000
  Mg  Mg717     1.0  0.90000  0.70000  0.10000  1.0000
  Mg  Mg718     1.0  0.95000  0.75000  0.10000  1.0000
  Mg  Mg719     1.0  0.95000  0.71667  0.15000  1.0000
  Mg  Mg720     1.0  0.90000  0.76667  0.15000  1.0000
  Mg  Mg721     1.0  0.00000  0.80000  0.10000  1.0000
  Mg  Mg722     1.0  0.05000  0.85000  0.10000  1.0000
  Mg  Mg723     1.0  0.05000  0.81667  0.15000  1.0000
  Mg  Mg724     1.0  0.00000  0.86667  0.15000  1.0000
  Mg  Mg725     1.0  0.10000  0.80000  0.10000  1.0000
  Mg  Mg726     1.0  0.15000  0.85000  0.10000  1.0000
  Mg  Mg727     1.0  0.15000  0.81667  0.15000  1.0000
  Mg  Mg728     1.0  0.10000  0.86667  0.15000  1.0000
  Mg  Mg729     1.0  0.20000  0.80000  0.10000  1.0000
  Mg  Mg730     1.0  0.25000  0.85000  0.10000  1.0000
  Mg  Mg731     1.0  0.25000  0.81667  0.15000  1.0000
  Mg  Mg732     1.0  0.20000  0.86667  0.15000  1.0000
  Mg  Mg733     1.0  0.30000  0.80000  0.10000  1.0000
  Mg  Mg734     1.0  0.35000  0.85000  0.10000  1.0000
  Mg  Mg735     1.0  0.35000  0.81667  0.15000  1.0000
  Mg  Mg736     1.0  0.30000  0.86667  0.15000  1.0000
  Mg  Mg737     1.0  0.40000  0.80000  0.10000  1.0000
  Mg  Mg738     1.0  0.45000  0.85000  0.10000  1.0000
  Mg  Mg739     1.0  0.45000  0.81667  0.15000  1.0000
  Mg  Mg740     1.0  0.40000  0.86667  0.15000  1.0000
  Mg  Mg741     1.0  0.50000  0.80000  0.10000  1.0000
  Mg  Mg742     1.0  0.55000  0.85000  0.10000  1.0000
  Mg  Mg743     1.0  0.55000  0.81667  0.15000  1.0000
  Mg  Mg744     1.0  0.50000  0.86667  0.15000  1.0000
  Mg  Mg745     1.0  0.60000  0.80000  0.10000  1.0000
  Mg  Mg746     1.0  0.65000  0.85000  0.10000  1.0000
  Mg  Mg747     1.0  0.65000  0.81667  0.15000  1.0000
  Mg  Mg748     1.0  0.60000  0.86667  0.15000  1.0000
  Mg  Mg749     1.0  0.70000  0.80000  0.10000  1.0000
  Mg  Mg750     1.0  0.75000  0.85000  0.10000  1.0000
  Mg  Mg751     1.0  0.75000  0.81667  0.15000  1.0000
  Mg  Mg752     1.0  0.70000  0.86667  0.15000  1.0000
  Mg  Mg753     1.0  0.80000  0.80000  0.10000  1.0000
  Mg  Mg754     1.0  0.85000  0.85000  0.10000  1.0000
  Mg  Mg755     1.0  0.85000  0.81667  0.15000  1.0000
  Mg  Mg756     1.0  0.80000  0.86667  0.15000  1.0000
  Mg  Mg757     1.0  0.90000  0.80000  0.10000  1.0000
  Mg  Mg758     1.0  0.95000  0.85000  0.10000  1.0000
  Mg  Mg759     1.0  0.95000  0.81667  0.15000  1.0000
  Mg  Mg760     1.0  0.90000  0.86667  0.15000  1.0000
  Mg  Mg761     1.0  0.00000  0.90000  0.10000  1.0000
  Mg  Mg762     1.0  0.05000  0.95000  0.10000  1.0000
  Mg  Mg763     1.0  0.05000  0.91667  0.15000  1.0000
  Mg  Mg764     1.0  0.00000  0.96667  0.15000  1.0000
  Mg  Mg765     1.0  0.10000  0.90000  0.10000  1.0000
  Mg  Mg766     1.0  0.15000  0.95000  0.10000  1.0000
  Mg  Mg767     1.0  0.15000  0.91667  0.15000  1.0000
  Mg  Mg768     1.0  0.10000  0.96667  0.15000  1.0000
  Mg  Mg769     1.0  0.20000  0.90000  0.10000  1.0000
  Mg  Mg770     1.0  0.25000  0.95000  0.10000  1.0000
  Mg  Mg771     1.0  0.25000  0.91667  0.15000  1.0000
  Mg  Mg772     1.0  0.20000  0.96667  0.15000  1.0000
  Mg  Mg773     1.0  0.30000  0.90000  0.10000  1.0000
  Mg  Mg774     1.0  0.35000  0.95000  0.10000  1.0000
  Mg  Mg775     1.0  0.35000  0.91667  0.15000  1.0000
  Mg  Mg776     1.0  0.30000  0.96667  0.15000  1.0000
  Mg  Mg777     1.0  0.40000  0.90000  0.10000  1.0000
  Mg  Mg778     1.0  0.45000  0.95000  0.10000  1.0000
  Mg  Mg779     1.0  0.45000  0.91667  0.15000  1.0000
  Mg  Mg780     1.0  0.40000  0.96667  0.15000  1.0000
  Mg  Mg781     1.0  0.50000  0.90000  0.10000  1.0000
  Mg  Mg782     1.0  0.55000  0.95000  0.10000  1.0000
  Mg  Mg783     1.0  0.55000  0.91667  0.15000  1.0000
  Mg  Mg784     1.0  0.50000  0.96667  0.15000  1.0000
  Mg  Mg785     1.0  0.60000  0.90000  0.10000  1.0000
  Mg  Mg786     1.0  0.65000  0.95000  0.10000  1.0000
  Mg  Mg787     1.0  0.65000  0.91667  0.15000  1.0000
  Mg  Mg788     1.0  0.60000  0.96667  0.15000  1.0000
  Mg  Mg789     1.0  0.70000  0.90000  0.10000  1.0000
  Mg  Mg790     1.0  0.75000  0.95000  0.10000  1.0000
  Mg  Mg791     1.0  0.75000  0.91667  0.15000  1.0000
  Mg  Mg792     1.0  0.70000  0.96667  0.15000  1.0000
  Mg  Mg793     1.0  0.80000  0.90000  0.10000  1.0000
  Mg  Mg794     1.0  0.85000  0.95000  0.10000  1.0000
  Mg  Mg795     1.0  0.85000  0.91667  0.15000  1.0000
  Mg  Mg796     1.0  0.80000  0.96667  0.15000  1.0000
  Mg  Mg797     1.0  0.90000  0.90000  0.10000  1.0000
  Mg  Mg798     1.0  0.95000  0.95000  0.10000  1.0000
  Mg  Mg799     1.0  0.95000  0.91667  0.15000  1.0000
  Mg  Mg800     1.0  0.90000  0.96667  0.15000  1.0000
  Mg  Mg801     1.0  0.00000  0.00000  0.20000  1.0000
  Mg  Mg802     1.0  0.05000  0.05000  0.20000  1.0000
  Mg  Mg803     1.0  0.05000  0.01667  0.25000  1.0000
  Mg  Mg804     1.0  0.00000  0.06667  0.25000  1.0000
  Mg  Mg805     1.0  0.10000  0.00000  0.20000  1.0000
  Mg  Mg806     1.0  0.15000  0.05000  0.20000  1.0000
  Mg  Mg807     1.0  0.15000  0.01667  0.25000  1.0000
  Mg  Mg808     1.0  0.10000  0.06667  0.25000  1.0000
  Mg  Mg809     1.0  0.20000  0.00000  0.20000  1.0000
  Mg  Mg810     1.0  0.25000  0.05000  0.20000  1.0000
  Mg  Mg811     1.0  0.25000  0.01667  0.25000  1.0000
  Mg  Mg812     1.0  0.20000  0.06667  0.25000  1.0000
  Mg  Mg813     1.0  0.30000  0.00000  0.20000  1.0000
  Mg  Mg814     1.0  0.35000  0.05000  0.20000  1.0000
  Mg  Mg815     1.0  0.35000  0.01667  0.25000  1.0000
  Mg  Mg816     1.0  0.30000  0.06667  0.25000  1.0000
  Mg  Mg817     1.0  0.40000  0.00000  0.20000  1.0000
  Mg  Mg818     1.0  0.45000  0.05000  0.20000  1.0000
  Mg  Mg819     1.0  0.45000  0.01667  0.25000  1.0000
  Mg  Mg820     1.0  0.40000  0.06667  0.25000  1.0000
  Mg  Mg821     1.0  0.50000  0.00000  0.20000  1.0000
  Mg  Mg822     1.0  0.55000  0.05000  0.20000  1.0000
  Mg  Mg823     1.0  0.55000  0.01667  0.25000  1.0000
  Mg  Mg824     1.0  0.50000  0.06667  0.25000  1.0000
  Mg  Mg825     1.0  0.60000  0.00000  0.20000  1.0000
  Mg  Mg826     1.0  0.65000  0.05000  0.20000  1.0000
  Mg  Mg827     1.0  0.65000  0.01667  0.25000  1.0000
  Mg  Mg828     1.0  0.60000  0.06667  0.25000  1.0000
  Mg  Mg829     1.0  0.70000  0.00000  0.20000  1.0000
  Mg  Mg830     1.0  0.75000  0.05000  0.20000  1.0000
  Mg  Mg831     1.0  0.75000  0.01667  0.25000  1.0000
  Mg  Mg832     1.0  0.70000  0.06667  0.25000  1.0000
  Mg  Mg833     1.0  0.80000  0.00000  0.20000  1.0000
  Mg  Mg834     1.0  0.85000  0.05000  0.20000  1.0000
  Mg  Mg835     1.0  0.85000  0.01667  0.25000  1.0000
  Mg  Mg836     1.0  0.80000  0.06667  0.25000  1.0000
  Mg  Mg837     1.0  0.90000  0.00000  0.20000  1.0000
  Mg  Mg838     1.0  0.95000  0.05000  0.20000  1.0000
  Mg  Mg839     1.0  0.95000  0.01667  0.25000  1.0000
  Mg  Mg840     1.0  0.90000  0.06667  0.25000  1.0000
  Mg  Mg841     1.0  0.00000  0.10000  0.20000  1.0000
  Mg  Mg842     1.0  0.05000  0.15000  0.20000  1.0000
  Mg  Mg843     1.0  0.05000  0.11667  0.25000  1.0000
  Mg  Mg844     1.0  0.00000  0.16667  0.25000  1.0000
  Mg  Mg845     1.0  0.10000  0.10000  0.20000  1.0000
  Mg  Mg846     1.0  0.15000  0.15000  0.20000  1.0000
  Mg  Mg847     1.0  0.15000  0.11667  0.25000  1.0000
  Mg  Mg848     1.0  0.10000  0.16667  0.25000  1.0000
  Mg  Mg849     1.0  0.20000  0.10000  0.20000  1.0000
  Mg  Mg850     1.0  0.25000  0.15000  0.20000  1.0000
  Mg  Mg851     1.0  0.25000  0.11667  0.25000  1.0000
  Mg  Mg852     1.0  0.20000  0.16667  0.25000  1.0000
  Mg  Mg853     1.0  0.30000  0.10000  0.20000  1.0000
  Mg  Mg854     1.0  0.35000  0.15000  0.20000  1.0000
  Mg  Mg855     1.0  0.35000  0.11667  0.25000  1.0000
  Mg  Mg856     1.0  0.30000  0.16667  0.25000  1.0000
  Mg  Mg857     1.0  0.40000  0.10000  0.20000  1.0000
  Mg  Mg858     1.0  0.45000  0.15000  0.20000  1.0000
  Mg  Mg859     1.0  0.45000  0.11667  0.25000  1.0000
  Mg  Mg860     1.0  0.40000  0.16667  0.25000  1.0000
  Mg  Mg861     1.0  0.50000  0.10000  0.20000  1.0000
  Mg  Mg862     1.0  0.55000  0.15000  0.20000  1.0000
  Mg  Mg863     1.0  0.55000  0.11667  0.25000  1.0000
  Mg  Mg864     1.0  0.50000  0.16667  0.25000  1.0000
  Mg  Mg865     1.0  0.60000  0.10000  0.20000  1.0000
  Mg  Mg866     1.0  0.65000  0.15000  0.20000  1.0000
  Mg  Mg867     1.0  0.65000  0.11667  0.25000  1.0000
  Mg  Mg868     1.0  0.60000  0.16667  0.25000  1.0000
  Mg  Mg869     1.0  0.70000  0.10000  0.20000  1.0000
  Mg  Mg870     1.0  0.75000  0.15000  0.20000  1.0000
  Mg  Mg871     1.0  0.75000  0.11667  0.25000  1.0000
  Mg  Mg872     1.0  0.70000  0.16667  0.25000  1.0000
  Mg  Mg873     1.0  0.80000  0.10000  0.20000  1.0000
  Mg  Mg874     1.0  0.85000  0.15000  0.20000  1.0000
  Mg  Mg875     1.0  0.85000  0.11667  0.25000  1.0000
  Mg  Mg876     1.0  0.80000  0.16667  0.25000  1.0000
  Mg  Mg877     1.0  0.90000  0.10000  0.20000  1.0000
  Mg  Mg878     1.0  0.95000  0.15000  0.20000  1.0000
  Mg  Mg879     1.0  0.95000  0.11667  0.25000  1.0000
  Mg  Mg880     1.0  0.90000  0.16667  0.25000  1.0000
  Mg  Mg881     1.0  0.00000  0.20000  0.20000  1.0000
  Mg  Mg882     1.0  0.05000  0.25000  0.20000  1.0000
  Mg  Mg883     1.0  0.05000  0.21667  0.25000  1.0000
  Mg  Mg884     1.0  0.00000  0.26667  0.25000  1.0000
  Mg  Mg885     1.0  0.10000  0.20000  0.20000  1.0000
  Mg  Mg886     1.0  0.15000  0.25000  0.20000  1.0000
  Mg  Mg887     1.0  0.15000  0.21667  0.25000  1.0000
  Mg  Mg888     1.0  0.10000  0.26667  0.25000  1.0000
  Mg  Mg889     1.0  0.20000  0.20000  0.20000  1.0000
  Mg  Mg890     1.0  0.25000  0.25000  0.20000  1.0000
  Mg  Mg891     1.0  0.25000  0.21667  0.25000  1.0000
  Mg  Mg892     1.0  0.20000  0.26667  0.25000  1.0000
  Mg  Mg893     1.0  0.30000  0.20000  0.20000  1.0000
  Mg  Mg894     1.0  0.35000  0.25000  0.20000  1.0000
  Mg  Mg895     1.0  0.35000  0.21667  0.25000  1.0000
  Mg  Mg896     1.0  0.30000  0.26667  0.25000  1.0000
  Mg  Mg897     1.0  0.40000  0.20000  0.20000  1.0000
  Mg  Mg898     1.0  0.45000  0.25000  0.20000  1.0000
  Mg  Mg899     1.0  0.45000  0.21667  0.25000  1.0000
  Mg  Mg900     1.0  0.40000  0.26667  0.25000  1.0000
  Mg  Mg901     1.0  0.50000  0.20000  0.20000  1.0000
  Mg  Mg902     1.0  0.55000  0.25000  0.20000  1.0000
  Mg  Mg903     1.0  0.55000  0.21667  0.25000  1.0000
  Mg  Mg904     1.0  0.50000  0.26667  0.25000  1.0000
  Mg  Mg905     1.0  0.60000  0.20000  0.20000  1.0000
  Mg  Mg906     1.0  0.65000  0.25000  0.20000  1.0000
  Mg  Mg907     1.0  0.65000  0.21667  0.25000  1.0000
  Mg  Mg908     1.0  0.60000  0.26667  0.25000  1.0000
  Mg  Mg909     1.0  0.70000  0.20000  0.20000  1.0000
  Mg  Mg910     1.0  0.75000  0.25000  0.20000  1.0000
  Mg  Mg911     1.0  0.75000  0.21667  0.25000  1.0000
  Mg  Mg912     1.0  0.70000  0.26667  0.25000  1.0000
  Mg  Mg913     1.0  0.80000  0.20000  0.20000  1.0000
  Mg  Mg914     1.0  0.85000  0.25000  0.20000  1.0000
  Mg  Mg915     1.0  0.85000  0.21667  0.25000  1.0000
  Mg  Mg916     1.0  0.80000  0.26667  0.25000  1.0000
  Mg  Mg917     1.0  0.90000  0.20000  0.20000  1.0000
  Mg  Mg918     1.0  0.95000  0.25000  0.20000  1.0000
  Mg  Mg919     1.0  0.95000  0.21667  0.25000  1.0000
  Mg  Mg920     1.0  0.90000  0.26667  0.25000  1.0000
  Mg  Mg921     1.0  0.00000  0.30000  0.20000  1.0000
  Mg  Mg922     1.0  0.05000  0.35000  0.20000  1.0000
  Mg  Mg923     1.0  0.05000  0.31667  0.25000  1.0000
  Mg  Mg924     1.0  0.00000  0.36667  0.25000  1.0000
  Mg  Mg925     1.0  0.10000  0.30000  0.20000  1.0000
  Mg  Mg926     1.0  0.15000  0.35000  0.20000  1.0000
  Mg  Mg927     1.0  0.15000  0.31667  0.25000  1.0000
  Mg  Mg928     1.0  0.10000  0.36667  0.25000  1.0000
  Mg  Mg929     1.0  0.20000  0.30000  0.20000  1.0000
  Mg  Mg930     1.0  0.25000  0.35000  0.20000  1.0000
  Mg  Mg931     1.0  0.25000  0.31667  0.25000  1.0000
  Mg  Mg932     1.0  0.20000  0.36667  0.25000  1.0000
  Mg  Mg933     1.0  0.30000  0.30000  0.20000  1.0000
  Mg  Mg934     1.0  0.35000  0.35000  0.20000  1.0000
  Mg  Mg935     1.0  0.35000  0.31667  0.25000  1.0000
  Mg  Mg936     1.0  0.30000  0.36667  0.25000  1.0000
  Mg  Mg937     1.0  0.40000  0.30000  0.20000  1.0000
  Mg  Mg938     1.0  0.45000  0.35000  0.20000  1.0000
  Mg  Mg939     1.0  0.45000  0.31667  0.25000  1.0000
  Mg  Mg940     1.0  0.40000  0.36667  0.25000  1.0000
  Mg  Mg941     1.0  0.50000  0.30000  0.20000  1.0000
  Mg  Mg942     1.0  0.55000  0.35000  0.20000  1.0000
  Mg  Mg943     1.0  0.55000  0.31667  0.25000  1.0000
  Mg  Mg944     1.0  0.50000  0.36667  0.25000  1.0000
  Mg  Mg945     1.0  0.60000  0.30000  0.20000  1.0000
  Mg  Mg946     1.0  0.65000  0.35000  0.20000  1.0000
  Mg  Mg947     1.0  0.65000  0.31667  0.25000  1.0000
  Mg  Mg948     1.0  0.60000  0.36667  0.25000  1.0000
  Mg  Mg949     1.0  0.70000  0.30000  0.20000  1.0000
  Mg  Mg950     1.0  0.75000  0.35000  0.20000  1.0000
  Mg  Mg951     1.0  0.75000  0.31667  0.25000  1.0000
  Mg  Mg952     1.0  0.70000  0.36667  0.25000  1.0000
  Mg  Mg953     1.0  0.80000  0.30000  0.20000  1.0000
  Mg  Mg954     1.0  0.85000  0.35000  0.20000  1.0000
  Mg  Mg955     1.0  0.85000  0.31667  0.25000  1.0000
  Mg  Mg956     1.0  0.80000  0.36667  0.25000  1.0000
  Mg  Mg957     1.0  0.90000  0.30000  0.20000  1.0000
  Mg  Mg958     1.0  0.95000  0.35000  0.20000  1.0000
  Mg  Mg959     1.0  0.95000  0.31667  0.25000  1.0000
  Mg  Mg960     1.0  0.90000  0.36667  0.25000  1.0000
  Mg  Mg961     1.0  0.00000  0.40000  0.20000  1.0000
  Mg  Mg962     1.0  0.05000  0.45000  0.20000  1.0000
  Mg  Mg963     1.0  0.05000  0.41667  0.25000  1.0000
  Mg  Mg964     1.0  0.00000  0.46667  0.25000  1.0000
  Mg  Mg965     1.0  0.10000  0.40000  0.20000  1.0000
  Mg  Mg966     1.0  0.15000  0.45000  0.20000  1.0000
  Mg  Mg967     1.0  0.15000  0.41667  0.25000  1.0000
  Mg  Mg968     1.0  0.10000  0.46667  0.25000  1.0000
  Mg  Mg969     1.0  0.20000  0.40000  0.20000  1.0000
  Mg  Mg970     1.0  0.25000  0.45000  0.20000  1.0000
  Mg  Mg971     1.0  0.25000  0.41667  0.25000  1.0000
  Mg  Mg972     1.0  0.20000  0.46667  0.25000  1.0000
  Mg  Mg973     1.0  0.30000  0.40000  0.20000  1.0000
  Mg  Mg974     1.0  0.35000  0.45000  0.20000  1.0000
  Mg  Mg975     1.0  0.35000  0.41667  0.25000  1.0000
  Mg  Mg976     1.0  0.30000  0.46667  0.25000  1.0000
  Mg  Mg977     1.0  0.40000  0.40000  0.20000  1.0000
  Mg  Mg978     1.0  0.45000  0.45000  0.20000  1.0000
  Mg  Mg979     1.0  0.45000  0.41667  0.25000  1.0000
  Mg  Mg980     1.0  0.40000  0.46667  0.25000  1.0000
  Mg  Mg981     1.0  0.50000  0.40000  0.20000  1.0000
  Mg  Mg982     1.0  0.55000  0.45000  0.20000  1.0000
  Mg  Mg983     1.0  0.55000  0.41667  0.25000  1.0000
  Mg  Mg984     1.0  0.50000  0.46667  0.25000  1.0000
  Mg  Mg985     1.0  0.60000  0.40000  0.20000  1.0000
  Mg  Mg986     1.0  0.65000  0.45000  0.20000  1.0000
  Mg  Mg987     1.0  0.65000  0.41667  0.25000  1.0000
  Mg  Mg988     1.0  0.60000  0.46667  0.25000  1.0000
  Mg  Mg989     1.0  0.70000  0.40000  0.20000  1.0000
  Mg  Mg990     1.0  0.75000  0.45000  0.20000  1.0000
  Mg  Mg991     1.0  0.75000  0.41667  0.25000  1.0000
  Mg  Mg992     1.0  0.70000  0.46667  0.25000  1.0000
  Mg  Mg993     1.0  0.80000  0.40000  0.20000  1.0000
  Mg  Mg994     1.0  0.85000  0.45000  0.20000  1.0000
  Mg  Mg995     1.0  0.85000  0.41667  0.25000  1.0000
  Mg  Mg996     1.0  0.80000  0.46667  0.25000  1.0000
  Mg  Mg997     1.0  0.90000  0.40000  0.20000  1.0000
  Mg  Mg998     1.0  0.95000  0.45000  0.20000  1.0000
  Mg  Mg999     1.0  0.95000  0.41667  0.25000  1.0000
  Mg  Mg1000    1.0  0.90000  0.46667  0.25000  1.0000
  Mg  Mg1001    1.0  0.00000  0.50000  0.20000  1.0000
  Mg  Mg1002    1.0  0.05000  0.55000  0.20000  1.0000
  Mg  Mg1003    1.0  0.05000  0.51667  0.25000  1.0000
  Mg  Mg1004    1.0  0.00000  0.56667  0.25000  1.0000
  Mg  Mg1005    1.0  0.10000  0.50000  0.20000  1.0000
  Mg  Mg1006    1.0  0.15000  0.55000  0.20000  1.0000
  Mg  Mg1007    1.0  0.15000  0.51667  0.25000  1.0000
  Mg  Mg1008    1.0  0.10000  0.56667  0.25000  1.0000
  Mg  Mg1009    1.0  0.20000  0.50000  0.20000  1.0000
  Mg  Mg1010    1.0  0.25000  0.55000  0.20000  1.0000
  Mg  Mg1011    1.0  0.25000  0.51667  0.25000  1.0000
  Mg  Mg1012    1.0  0.20000  0.56667  0.25000  1.0000
  Mg  Mg1013    1.0  0.30000  0.50000  0.20000  1.0000
  Mg  Mg1014    1.0  0.35000  0.55000  0.20000  1.0000
  Mg  Mg1015    1.0  0.35000  0.51667  0.25000  1.0000
  Mg  Mg1016    1.0  0.30000  0.56667  0.25000  1.0000
  Mg  Mg1017    1.0  0.40000  0.50000  0.20000  1.0000
  Mg  Mg1018    1.0  0.45000  0.55000  0.20000  1.0000
  Mg  Mg1019    1.0  0.45000  0.51667  0.25000  1.0000
  Mg  Mg1020    1.0  0.40000  0.56667  0.25000  1.0000
  Mg  Mg1021    1.0  0.50000  0.50000  0.20000  1.0000
  Mg  Mg1022    1.0  0.55000  0.55000  0.20000  1.0000
  Mg  Mg1023    1.0  0.55000  0.51667  0.25000  1.0000
  Mg  Mg1024    1.0  0.50000  0.56667  0.25000  1.0000
  Mg  Mg1025    1.0  0.60000  0.50000  0.20000  1.0000
  Mg  Mg1026    1.0  0.65000  0.55000  0.20000  1.0000
  Mg  Mg1027    1.0  0.65000  0.51667  0.25000  1.0000
  Mg  Mg1028    1.0  0.60000  0.56667  0.25000  1.0000
  Mg  Mg1029    1.0  0.70000  0.50000  0.20000  1.0000
  Mg  Mg1030    1.0  0.75000  0.55000  0.20000  1.0000
  Mg  Mg1031    1.0  0.75000  0.51667  0.25000  1.0000
  Mg  Mg1032    1.0  0.70000  0.56667  0.25000  1.0000
  Mg  Mg1033    1.0  0.80000  0.50000  0.20000  1.0000
  Mg  Mg1034    1.0  0.85000  0.55000  0.20000  1.0000
  Mg  Mg1035    1.0  0.85000  0.51667  0.25000  1.0000
  Mg  Mg1036    1.0  0.80000  0.56667  0.25000  1.0000
  Mg  Mg1037    1.0  0.90000  0.50000  0.20000  1.0000
  Mg  Mg1038    1.0  0.95000  0.55000  0.20000  1.0000
  Mg  Mg1039    1.0  0.95000  0.51667  0.25000  1.0000
  Mg  Mg1040    1.0  0.90000  0.56667  0.25000  1.0000
  Mg  Mg1041    1.0  0.00000  0.60000  0.20000  1.0000
  Mg  Mg1042    1.0  0.05000  0.65000  0.20000  1.0000
  Mg  Mg1043    1.0  0.05000  0.61667  0.25000  1.0000
  Mg  Mg1044    1.0  0.00000  0.66667  0.25000  1.0000
  Mg  Mg1045    1.0  0.10000  0.60000  0.20000  1.0000
  Mg  Mg1046    1.0  0.15000  0.65000  0.20000  1.0000
  Mg  Mg1047    1.0  0.15000  0.61667  0.25000  1.0000
  Mg  Mg1048    1.0  0.10000  0.66667  0.25000  1.0000
  Mg  Mg1049    1.0  0.20000  0.60000  0.20000  1.0000
  Mg  Mg1050    1.0  0.25000  0.65000  0.20000  1.0000
  Mg  Mg1051    1.0  0.25000  0.61667  0.25000  1.0000
  Mg  Mg1052    1.0  0.20000  0.66667  0.25000  1.0000
  Mg  Mg1053    1.0  0.30000  0.60000  0.20000  1.0000
  Mg  Mg1054    1.0  0.35000  0.65000  0.20000  1.0000
  Mg  Mg1055    1.0  0.35000  0.61667  0.25000  1.0000
  Mg  Mg1056    1.0  0.30000  0.66667  0.25000  1.0000
  Mg  Mg1057    1.0  0.40000  0.60000  0.20000  1.0000
  Mg  Mg1058    1.0  0.45000  0.65000  0.20000  1.0000
  Mg  Mg1059    1.0  0.45000  0.61667  0.25000  1.0000
  Mg  Mg1060    1.0  0.40000  0.66667  0.25000  1.0000
  Mg  Mg1061    1.0  0.50000  0.60000  0.20000  1.0000
  Mg  Mg1062    1.0  0.55000  0.65000  0.20000  1.0000
  Mg  Mg1063    1.0  0.55000  0.61667  0.25000  1.0000
  Mg  Mg1064    1.0  0.50000  0.66667  0.25000  1.0000
  Mg  Mg1065    1.0  0.60000  0.60000  0.20000  1.0000
  Mg  Mg1066    1.0  0.65000  0.65000  0.20000  1.0000
  Mg  Mg1067    1.0  0.65000  0.61667  0.25000  1.0000
  Mg  Mg1068    1.0  0.60000  0.66667  0.25000  1.0000
  Mg  Mg1069    1.0  0.70000  0.60000  0.20000  1.0000
  Mg  Mg1070    1.0  0.75000  0.65000  0.20000  1.0000
  Mg  Mg1071    1.0  0.75000  0.61667  0.25000  1.0000
  Mg  Mg1072    1.0  0.70000  0.66667  0.25000  1.0000
  Mg  Mg1073    1.0  0.80000  0.60000  0.20000  1.0000
  Mg  Mg1074    1.0  0.85000  0.65000  0.20000  1.0000
  Mg  Mg1075    1.0  0.85000  0.61667  0.25000  1.0000
  Mg  Mg1076    1.0  0.80000  0.66667  0.25000  1.0000
  Mg  Mg1077    1.0  0.90000  0.60000  0.20000  1.0000
  Mg  Mg1078    1.0  0.95000  0.65000  0.20000  1.0000
  Mg  Mg1079    1.0  0.95000  0.61667  0.25000  1.0000
  Mg  Mg1080    1.0  0.90000  0.66667  0.25000  1.0000
  Mg  Mg1081    1.0  0.00000  0.70000  0.20000  1.0000
  Mg  Mg1082    1.0  0.05000  0.75000  0.20000  1.0000
  Mg  Mg1083    1.0  0.05000  0.71667  0.25000  1.0000
  Mg  Mg1084    1.0  0.00000  0.76667  0.25000  1.0000
  Mg  Mg1085    1.0  0.10000  0.70000  0.20000  1.0000
  Mg  Mg1086    1.0  0.15000  0.75000  0.20000  1.0000
  Mg  Mg1087    1.0  0.15000  0.71667  0.25000  1.0000
  Mg  Mg1088    1.0  0.10000  0.76667  0.25000  1.0000
  Mg  Mg1089    1.0  0.20000  0.70000  0.20000  1.0000
  Mg  Mg1090    1.0  0.25000  0.75000  0.20000  1.0000
  Mg  Mg1091    1.0  0.25000  0.71667  0.25000  1.0000
  Mg  Mg1092    1.0  0.20000  0.76667  0.25000  1.0000
  Mg  Mg1093    1.0  0.30000  0.70000  0.20000  1.0000
  Mg  Mg1094    1.0  0.35000  0.75000  0.20000  1.0000
  Mg  Mg1095    1.0  0.35000  0.71667  0.25000  1.0000
  Mg  Mg1096    1.0  0.30000  0.76667  0.25000  1.0000
  Mg  Mg1097    1.0  0.40000  0.70000  0.20000  1.0000
  Mg  Mg1098    1.0  0.45000  0.75000  0.20000  1.0000
  Mg  Mg1099    1.0  0.45000  0.71667  0.25000  1.0000
  Mg  Mg1100    1.0  0.40000  0.76667  0.25000  1.0000
  Mg  Mg1101    1.0  0.50000  0.70000  0.20000  1.0000
  Mg  Mg1102    1.0  0.55000  0.75000  0.20000  1.0000
  Mg  Mg1103    1.0  0.55000  0.71667  0.25000  1.0000
  Mg  Mg1104    1.0  0.50000  0.76667  0.25000  1.0000
  Mg  Mg1105    1.0  0.60000  0.70000  0.20000  1.0000
  Mg  Mg1106    1.0  0.65000  0.75000  0.20000  1.0000
  Mg  Mg1107    1.0  0.65000  0.71667  0.25000  1.0000
  Mg  Mg1108    1.0  0.60000  0.76667  0.25000  1.0000
  Mg  Mg1109    1.0  0.70000  0.70000  0.20000  1.0000
  Mg  Mg1110    1.0  0.75000  0.75000  0.20000  1.0000
  Mg  Mg1111    1.0  0.75000  0.71667  0.25000  1.0000
  Mg  Mg1112    1.0  0.70000  0.76667  0.25000  1.0000
  Mg  Mg1113    1.0  0.80000  0.70000  0.20000  1.0000
  Mg  Mg1114    1.0  0.85000  0.75000  0.20000  1.0000
  Mg  Mg1115    1.0  0.85000  0.71667  0.25000  1.0000
  Mg  Mg1116    1.0  0.80000  0.76667  0.25000  1.0000
  Mg  Mg1117    1.0  0.90000  0.70000  0.20000  1.0000
  Mg  Mg1118    1.0  0.95000  0.75000  0.20000  1.0000
  Mg  Mg1119    1.0  0.95000  0.71667  0.25000  1.0000
  Mg  Mg1120    1.0  0.90000  0.76667  0.25000  1.0000
  Mg  Mg1121    1.0  0.00000  0.80000  0.20000  1.0000
  Mg  Mg1122    1.0  0.05000  0.85000  0.20000  1.0000
  Mg  Mg1123    1.0  0.05000  0.81667  0.25000  1.0000
  Mg  Mg1124    1.0  0.00000  0.86667  0.25000  1.0000
  Mg  Mg1125    1.0  0.10000  0.80000  0.20000  1.0000
  Mg  Mg1126    1.0  0.15000  0.85000  0.20000  1.0000
  Mg  Mg1127    1.0  0.15000  0.81667  0.25000  1.0000
  Mg  Mg1128    1.0  0.10000  0.86667  0.25000  1.0000
  Mg  Mg1129    1.0  0.20000  0.80000  0.20000  1.0000
  Mg  Mg1130    1.0  0.25000  0.85000  0.20000  1.0000
  Mg  Mg1131    1.0  0.25000  0.81667  0.25000  1.0000
  Mg  Mg1132    1.0  0.20000  0.86667  0.25000  1.0000
  Mg  Mg1133    1.0  0.30000  0.80000  0.20000  1.0000
  Mg  Mg1134    1.0  0.35000  0.85000  0.20000  1.0000
  Mg  Mg1135    1.0  0.35000  0.81667  0.25000  1.0000
  Mg  Mg1136    1.0  0.30000  0.86667  0.25000  1.0000
  Mg  Mg1137    1.0  0.40000  0.80000  0.20000  1.0000
  Mg  Mg1138    1.0  0.45000  0.85000  0.20000  1.0000
  Mg  Mg1139    1.0  0.45000  0.81667  0.25000  1.0000
  Mg  Mg1140    1.0  0.40000  0.86667  0.25000  1.0000
  Mg  Mg1141    1.0  0.50000  0.80000  0.20000  1.0000
  Mg  Mg1142    1.0  0.55000  0.85000  0.20000  1.0000
  Mg  Mg1143    1.0  0.55000  0.81667  0.25000  1.0000
  Mg  Mg1144    1.0  0.50000  0.86667  0.25000  1.0000
  Mg  Mg1145    1.0  0.60000  0.80000  0.20000  1.0000
  Mg  Mg1146    1.0  0.65000  0.85000  0.20000  1.0000
  Mg  Mg1147    1.0  0.65000  0.81667  0.25000  1.0000
  Mg  Mg1148    1.0  0.60000  0.86667  0.25000  1.0000
  Mg  Mg1149    1.0  0.70000  0.80000  0.20000  1.0000
  Mg  Mg1150    1.0  0.75000  0.85000  0.20000  1.0000
  Mg  Mg1151    1.0  0.75000  0.81667  0.25000  1.0000
  Mg  Mg1152    1.0  0.70000  0.86667  0.25000  1.0000
  Mg  Mg1153    1.0  0.80000  0.80000  0.20000  1.0000
  Mg  Mg1154    1.0  0.85000  0.85000  0.20000  1.0000
  Mg  Mg1155    1.0  0.85000  0.81667  0.25000  1.0000
  Mg  Mg1156    1.0  0.80000  0.86667  0.25000  1.0000
  Mg  Mg1157    1.0  0.90000  0.80000  0.20000  1.0000
  Mg  Mg1158    1.0  0.95000  0.85000  0.20000  1.0000
  Mg  Mg1159    1.0  0.95000  0.81667  0.25000  1.0000
  Mg  Mg1160    1.0  0.90000  0.86667  0.25000  1.0000
  Mg  Mg1161    1.0  0.00000  0.90000  0.20000  1.0000
  Mg  Mg1162    1.0  0.05000  0.95000  0.20000  1.0000
  Mg  Mg1163    1.0  0.05000  0.91667  0.25000  1.0000
  Mg  Mg1164    1.0  0.00000  0.96667  0.25000  1.0000
  Mg  Mg1165    1.0  0.10000  0.90000  0.20000  1.0000
  Mg  Mg1166    1.0  0.15000  0.95000  0.20000  1.0000
  Mg  Mg1167    1.0  0.15000  0.91667  0.25000  1.0000
  Mg  Mg1168    1.0  0.10000  0.96667  0.25000  1.0000
  Mg  Mg1169    1.0  0.20000  0.90000  0.20000  1.0000
  Mg  Mg1170    1.0  0.25000  0.95000  0.20000  1.0000
  Mg  Mg1171    1.0  0.25000  0.91667  0.25000  1.0000
  Mg  Mg1172    1.0  0.20000  0.96667  0.25000  1.0000
  Mg  Mg1173    1.0  0.30000  0.90000  0.20000  1.0000
  Mg  Mg1174    1.0  0.35000  0.95000  0.20000  1.0000
  Mg  Mg1175    1.0  0.35000  0.91667  0.25000  1.0000
  Mg  Mg1176    1.0  0.30000  0.96667  0.25000  1.0000
  Mg  Mg1177    1.0  0.40000  0.90000  0.20000  1.0000
  Mg  Mg1178    1.0  0.45000  0.95000  0.20000  1.0000
  Mg  Mg1179    1.0  0.45000  0.91667  0.25000  1.0000
  Mg  Mg1180    1.0  0.40000  0.96667  0.25000  1.0000
  Mg  Mg1181    1.0  0.50000  0.90000  0.20000  1.0000
  Mg  Mg1182    1.0  0.55000  0.95000  0.20000  1.0000
  Mg  Mg1183    1.0  0.55000  0.91667  0.25000  1.0000
  Mg  Mg1184    1.0  0.50000  0.96667  0.25000  1.0000
  Mg  Mg1185    1.0  0.60000  0.90000  0.20000  1.0000
  Mg  Mg1186    1.0  0.65000  0.95000  0.20000  1.0000
  Mg  Mg1187    1.0  0.65000  0.91667  0.25000  1.0000
  Mg  Mg1188    1.0  0.60000  0.96667  0.25000  1.0000
  Mg  Mg1189    1.0  0.70000  0.90000  0.20000  1.0000
  Mg  Mg1190    1.0  0.75000  0.95000  0.20000  1.0000
  Mg  Mg1191    1.0  0.75000  0.91667  0.25000  1.0000
  Mg  Mg1192    1.0  0.70000  0.96667  0.25000  1.0000
  Mg  Mg1193    1.0  0.80000  0.90000  0.20000  1.0000
  Mg  Mg1194    1.0  0.85000  0.95000  0.20000  1.0000
  Mg  Mg1195    1.0  0.85000  0.91667  0.25000  1.0000
  Mg  Mg1196    1.0  0.80000  0.96667  0.25000  1.0000
  Mg  Mg1197    1.0  0.90000  0.90000  0.20000  1.0000
  Mg  Mg1198    1.0  0.95000  0.95000  0.20000  1.0000
  Mg  Mg1199    1.0  0.95000  0.91667  0.25000  1.0000
  Mg  Mg1200    1.0  0.90000  0.96667  0.25000  1.0000
  Mg  Mg1201    1.0  0.00000  0.00000  0.30000  1.0000
  Mg  Mg1202    1.0  0.05000  0.05000  0.30000  1.0000
  Mg  Mg1203    1.0  0.05000  0.01667  0.35000  1.0000
  Mg  Mg1204    1.0  0.00000  0.06667  0.35000  1.0000
  Mg  Mg1205    1.0  0.10000  0.00000  0.30000  1.0000
  Mg  Mg1206    1.0  0.15000  0.05000  0.30000  1.0000
  Mg  Mg1207    1.0  0.15000  0.01667  0.35000  1.0000
  Mg  Mg1208    1.0  0.10000  0.06667  0.35000  1.0000
  Mg  Mg1209    1.0  0.20000  0.00000  0.30000  1.0000
  Mg  Mg1210    1.0  0.25000  0.05000  0.30000  1.0000
  Mg  Mg1211    1.0  0.25000  0.01667  0.35000  1.0000
  Mg  Mg1212    1.0  0.20000  0.06667  0.35000  1.0000
  Mg  Mg1213    1.0  0.30000  0.00000  0.30000  1.0000
  Mg  Mg1214    1.0  0.35000  0.05000  0.30000  1.0000
  Mg  Mg1215    1.0  0.35000  0.01667  0.35000  1.0000
  Mg  Mg1216    1.0  0.30000  0.06667  0.35000  1.0000
  Mg  Mg1217    1.0  0.40000  0.00000  0.30000  1.0000
  Mg  Mg1218    1.0  0.45000  0.05000  0.30000  1.0000
  Mg  Mg1219    1.0  0.45000  0.01667  0.35000  1.0000
  Mg  Mg1220    1.0  0.40000  0.06667  0.35000  1.0000
  Mg  Mg1221    1.0  0.50000  0.00000  0.30000  1.0000
  Mg  Mg1222    1.0  0.55000  0.05000  0.30000  1.0000
  Mg  Mg1223    1.0  0.55000  0.01667  0.35000  1.0000
  Mg  Mg1224    1.0  0.50000  0.06667  0.35000  1.0000
  Mg  Mg1225    1.0  0.60000  0.00000  0.30000  1.0000
  Mg  Mg1226    1.0  0.65000  0.05000  0.30000  1.0000
  Mg  Mg1227    1.0  0.65000  0.01667  0.35000  1.0000
  Mg  Mg1228    1.0  0.60000  0.06667  0.35000  1.0000
  Mg  Mg1229    1.0  0.70000  0.00000  0.30000  1.0000
  Mg  Mg1230    1.0  0.75000  0.05000  0.30000  1.0000
  Mg  Mg1231    1.0  0.75000  0.01667  0.35000  1.0000
  Mg  Mg1232    1.0  0.70000  0.06667  0.35000  1.0000
  Mg  Mg1233    1.0  0.80000  0.00000  0.30000  1.0000
  Mg  Mg1234    1.0  0.85000  0.05000  0.30000  1.0000
  Mg  Mg1235    1.0  0.85000  0.01667  0.35000  1.0000
  Mg  Mg1236    1.0  0.80000  0.06667  0.35000  1.0000
  Mg  Mg1237    1.0  0.90000  0.00000  0.30000  1.0000
  Mg  Mg1238    1.0  0.95000  0.05000  0.30000  1.0000
  Mg  Mg1239    1.0  0.95000  0.01667  0.35000  1.0000
  Mg  Mg1240    1.0  0.90000  0.06667  0.35000  1.0000
  Mg  Mg1241    1.0  0.00000  0.10000  0.30000  1.0000
  Mg  Mg1242    1.0  0.05000  0.15000  0.30000  1.0000
  Mg  Mg1243    1.0  0.05000  0.11667  0.35000  1.0000
  Mg  Mg1244    1.0  0.00000  0.16667  0.35000  1.0000
  Mg  Mg1245    1.0  0.10000  0.10000  0.30000  1.0000
  Mg  Mg1246    1.0  0.15000  0.15000  0.30000  1.0000
  Mg  Mg1247    1.0  0.15000  0.11667  0.35000  1.0000
  Mg  Mg1248    1.0  0.10000  0.16667  0.35000  1.0000
  Mg  Mg1249    1.0  0.20000  0.10000  0.30000  1.0000
  Mg  Mg1250    1.0  0.25000  0.15000  0.30000  1.0000
  Mg  Mg1251    1.0  0.25000  0.11667  0.35000  1.0000
  Mg  Mg1252    1.0  0.20000  0.16667  0.35000  1.0000
  Mg  Mg1253    1.0  0.30000  0.10000  0.30000  1.0000
  Mg  Mg1254    1.0  0.35000  0.15000  0.30000  1.0000
  Mg  Mg1255    1.0  0.35000  0.11667  0.35000  1.0000
  Mg  Mg1256    1.0  0.30000  0.16667  0.35000  1.0000
  Mg  Mg1257    1.0  0.40000  0.10000  0.30000  1.0000
  Mg  Mg1258    1.0  0.45000  0.15000  0.30000  1.0000
  Mg  Mg1259    1.0  0.45000  0.11667  0.35000  1.0000
  Mg  Mg1260    1.0  0.40000  0.16667  0.35000  1.0000
  Mg  Mg1261    1.0  0.50000  0.10000  0.30000  1.0000
  Mg  Mg1262    1.0  0.55000  0.15000  0.30000  1.0000
  Mg  Mg1263    1.0  0.55000  0.11667  0.35000  1.0000
  Mg  Mg1264    1.0  0.50000  0.16667  0.35000  1.0000
  Mg  Mg1265    1.0  0.60000  0.10000  0.30000  1.0000
  Mg  Mg1266    1.0  0.65000  0.15000  0.30000  1.0000
  Mg  Mg1267    1.0  0.65000  0.11667  0.35000  1.0000
  Mg  Mg1268    1.0  0.60000  0.16667  0.35000  1.0000
  Mg  Mg1269    1.0  0.70000  0.10000  0.30000  1.0000
  Mg  Mg1270    1.0  0.75000  0.15000  0.30000  1.0000
  Mg  Mg1271    1.0  0.75000  0.11667  0.35000  1.0000
  Mg  Mg1272    1.0  0.70000  0.16667  0.35000  1.0000
  Mg  Mg1273    1.0  0.80000  0.10000  0.30000  1.0000
  Mg  Mg1274    1.0  0.85000  0.15000  0.30000  1.0000
  Mg  Mg1275    1.0  0.85000  0.11667  0.35000  1.0000
  Mg  Mg1276    1.0  0.80000  0.16667  0.35000  1.0000
  Mg  Mg1277    1.0  0.90000  0.10000  0.30000  1.0000
  Mg  Mg1278    1.0  0.95000  0.15000  0.30000  1.0000
  Mg  Mg1279    1.0  0.95000  0.11667  0.35000  1.0000
  Mg  Mg1280    1.0  0.90000  0.16667  0.35000  1.0000
  Mg  Mg1281    1.0  0.00000  0.20000  0.30000  1.0000
  Mg  Mg1282    1.0  0.05000  0.25000  0.30000  1.0000
  Mg  Mg1283    1.0  0.05000  0.21667  0.35000  1.0000
  Mg  Mg1284    1.0  0.00000  0.26667  0.35000  1.0000
  Mg  Mg1285    1.0  0.10000  0.20000  0.30000  1.0000
  Mg  Mg1286    1.0  0.15000  0.25000  0.30000  1.0000
  Mg  Mg1287    1.0  0.15000  0.21667  0.35000  1.0000
  Mg  Mg1288    1.0  0.10000  0.26667  0.35000  1.0000
  Mg  Mg1289    1.0  0.20000  0.20000  0.30000  1.0000
  Mg  Mg1290    1.0  0.25000  0.25000  0.30000  1.0000
  Mg  Mg1291    1.0  0.25000  0.21667  0.35000  1.0000
  Mg  Mg1292    1.0  0.20000  0.26667  0.35000  1.0000
  Mg  Mg1293    1.0  0.30000  0.20000  0.30000  1.0000
  Mg  Mg1294    1.0  0.35000  0.25000  0.30000  1.0000
  Mg  Mg1295    1.0  0.35000  0.21667  0.35000  1.0000
  Mg  Mg1296    1.0  0.30000  0.26667  0.35000  1.0000
  Mg  Mg1297    1.0  0.40000  0.20000  0.30000  1.0000
  Mg  Mg1298    1.0  0.45000  0.25000  0.30000  1.0000
  Mg  Mg1299    1.0  0.45000  0.21667  0.35000  1.0000
  Mg  Mg1300    1.0  0.40000  0.26667  0.35000  1.0000
  Mg  Mg1301    1.0  0.50000  0.20000  0.30000  1.0000
  Mg  Mg1302    1.0  0.55000  0.25000  0.30000  1.0000
  Mg  Mg1303    1.0  0.55000  0.21667  0.35000  1.0000
  Mg  Mg1304    1.0  0.50000  0.26667  0.35000  1.0000
  Mg  Mg1305    1.0  0.60000  0.20000  0.30000  1.0000
  Mg  Mg1306    1.0  0.65000  0.25000  0.30000  1.0000
  Mg  Mg1307    1.0  0.65000  0.21667  0.35000  1.0000
  Mg  Mg1308    1.0  0.60000  0.26667  0.35000  1.0000
  Mg  Mg1309    1.0  0.70000  0.20000  0.30000  1.0000
  Mg  Mg1310    1.0  0.75000  0.25000  0.30000  1.0000
  Mg  Mg1311    1.0  0.75000  0.21667  0.35000  1.0000
  Mg  Mg1312    1.0  0.70000  0.26667  0.35000  1.0000
  Mg  Mg1313    1.0  0.80000  0.20000  0.30000  1.0000
  Mg  Mg1314    1.0  0.85000  0.25000  0.30000  1.0000
  Mg  Mg1315    1.0  0.85000  0.21667  0.35000  1.0000
  Mg  Mg1316    1.0  0.80000  0.26667  0.35000  1.0000
  Mg  Mg1317    1.0  0.90000  0.20000  0.30000  1.0000
  Mg  Mg1318    1.0  0.95000  0.25000  0.30000  1.0000
  Mg  Mg1319    1.0  0.95000  0.21667  0.35000  1.0000
  Mg  Mg1320    1.0  0.90000  0.26667  0.35000  1.0000
  Mg  Mg1321    1.0  0.00000  0.30000  0.30000  1.0000
  Mg  Mg1322    1.0  0.05000  0.35000  0.30000  1.0000
  Mg  Mg1323    1.0  0.05000  0.31667  0.35000  1.0000
  Mg  Mg1324    1.0  0.00000  0.36667  0.35000  1.0000
  Mg  Mg1325    1.0  0.10000  0.30000  0.30000  1.0000
  Mg  Mg1326    1.0  0.15000  0.35000  0.30000  1.0000
  Mg  Mg1327    1.0  0.15000  0.31667  0.35000  1.0000
  Mg  Mg1328    1.0  0.10000  0.36667  0.35000  1.0000
  Mg  Mg1329    1.0  0.20000  0.30000  0.30000  1.0000
  Mg  Mg1330    1.0  0.25000  0.35000  0.30000  1.0000
  Mg  Mg1331    1.0  0.25000  0.31667  0.35000  1.0000
  Mg  Mg1332    1.0  0.20000  0.36667  0.35000  1.0000
  Mg  Mg1333    1.0  0.30000  0.30000  0.30000  1.0000
  Mg  Mg1334    1.0  0.35000  0.35000  0.30000  1.0000
  Mg  Mg1335    1.0  0.35000  0.31667  0.35000  1.0000
  Mg  Mg1336    1.0  0.30000  0.36667  0.35000  1.0000
  Mg  Mg1337    1.0  0.40000  0.30000  0.30000  1.0000
  Mg  Mg1338    1.0  0.45000  0.35000  0.30000  1.0000
  Mg  Mg1339    1.0  0.45000  0.31667  0.35000  1.0000
  Mg  Mg1340    1.0  0.40000  0.36667  0.35000  1.0000
  Mg  Mg1341    1.0  0.50000  0.30000  0.30000  1.0000
  Mg  Mg1342    1.0  0.55000  0.35000  0.30000  1.0000
  Mg  Mg1343    1.0  0.55000  0.31667  0.35000  1.0000
  Mg  Mg1344    1.0  0.50000  0.36667  0.35000  1.0000
  Mg  Mg1345    1.0  0.60000  0.30000  0.30000  1.0000
  Mg  Mg1346    1.0  0.65000  0.35000  0.30000  1.0000
  Mg  Mg1347    1.0  0.65000  0.31667  0.35000  1.0000
  Mg  Mg1348    1.0  0.60000  0.36667  0.35000  1.0000
  Mg  Mg1349    1.0  0.70000  0.30000  0.30000  1.0000
  Mg  Mg1350    1.0  0.75000  0.35000  0.30000  1.0000
  Mg  Mg1351    1.0  0.75000  0.31667  0.35000  1.0000
  Mg  Mg1352    1.0  0.70000  0.36667  0.35000  1.0000
  Mg  Mg1353    1.0  0.80000  0.30000  0.30000  1.0000
  Mg  Mg1354    1.0  0.85000  0.35000  0.30000  1.0000
  Mg  Mg1355    1.0  0.85000  0.31667  0.35000  1.0000
  Mg  Mg1356    1.0  0.80000  0.36667  0.35000  1.0000
  Mg  Mg1357    1.0  0.90000  0.30000  0.30000  1.0000
  Mg  Mg1358    1.0  0.95000  0.35000  0.30000  1.0000
  Mg  Mg1359    1.0  0.95000  0.31667  0.35000  1.0000
  Mg  Mg1360    1.0  0.90000  0.36667  0.35000  1.0000
  Mg  Mg1361    1.0  0.00000  0.40000  0.30000  1.0000
  Mg  Mg1362    1.0  0.05000  0.45000  0.30000  1.0000
  Mg  Mg1363    1.0  0.05000  0.41667  0.35000  1.0000
  Mg  Mg1364    1.0  0.00000  0.46667  0.35000  1.0000
  Mg  Mg1365    1.0  0.10000  0.40000  0.30000  1.0000
  Mg  Mg1366    1.0  0.15000  0.45000  0.30000  1.0000
  Mg  Mg1367    1.0  0.15000  0.41667  0.35000  1.0000
  Mg  Mg1368    1.0  0.10000  0.46667  0.35000  1.0000
  Mg  Mg1369    1.0  0.20000  0.40000  0.30000  1.0000
  Mg  Mg1370    1.0  0.25000  0.45000  0.30000  1.0000
  Mg  Mg1371    1.0  0.25000  0.41667  0.35000  1.0000
  Mg  Mg1372    1.0  0.20000  0.46667  0.35000  1.0000
  Mg  Mg1373    1.0  0.30000  0.40000  0.30000  1.0000
  Mg  Mg1374    1.0  0.35000  0.45000  0.30000  1.0000
  Mg  Mg1375    1.0  0.35000  0.41667  0.35000  1.0000
  Mg  Mg1376    1.0  0.30000  0.46667  0.35000  1.0000
  Mg  Mg1377    1.0  0.40000  0.40000  0.30000  1.0000
  Mg  Mg1378    1.0  0.45000  0.45000  0.30000  1.0000
  Mg  Mg1379    1.0  0.45000  0.41667  0.35000  1.0000
  Mg  Mg1380    1.0  0.40000  0.46667  0.35000  1.0000
  Mg  Mg1381    1.0  0.50000  0.40000  0.30000  1.0000
  Mg  Mg1382    1.0  0.55000  0.45000  0.30000  1.0000
  Mg  Mg1383    1.0  0.55000  0.41667  0.35000  1.0000
  Mg  Mg1384    1.0  0.50000  0.46667  0.35000  1.0000
  Mg  Mg1385    1.0  0.60000  0.40000  0.30000  1.0000
  Mg  Mg1386    1.0  0.65000  0.45000  0.30000  1.0000
  Mg  Mg1387    1.0  0.65000  0.41667  0.35000  1.0000
  Mg  Mg1388    1.0  0.60000  0.46667  0.35000  1.0000
  Mg  Mg1389    1.0  0.70000  0.40000  0.30000  1.0000
  Mg  Mg1390    1.0  0.75000  0.45000  0.30000  1.0000
  Mg  Mg1391    1.0  0.75000  0.41667  0.35000  1.0000
  Mg  Mg1392    1.0  0.70000  0.46667  0.35000  1.0000
  Mg  Mg1393    1.0  0.80000  0.40000  0.30000  1.0000
  Mg  Mg1394    1.0  0.85000  0.45000  0.30000  1.0000
  Mg  Mg1395    1.0  0.85000  0.41667  0.35000  1.0000
  Mg  Mg1396    1.0  0.80000  0.46667  0.35000  1.0000
  Mg  Mg1397    1.0  0.90000  0.40000  0.30000  1.0000
  Mg  Mg1398    1.0  0.95000  0.45000  0.30000  1.0000
  Mg  Mg1399    1.0  0.95000  0.41667  0.35000  1.0000
  Mg  Mg1400    1.0  0.90000  0.46667  0.35000  1.0000
  Mg  Mg1401    1.0  0.00000  0.50000  0.30000  1.0000
  Mg  Mg1402    1.0  0.05000  0.55000  0.30000  1.0000
  Mg  Mg1403    1.0  0.05000  0.51667  0.35000  1.0000
  Mg  Mg1404    1.0  0.00000  0.56667  0.35000  1.0000
  Mg  Mg1405    1.0  0.10000  0.50000  0.30000  1.0000
  Mg  Mg1406    1.0  0.15000  0.55000  0.30000  1.0000
  Mg  Mg1407    1.0  0.15000  0.51667  0.35000  1.0000
  Mg  Mg1408    1.0  0.10000  0.56667  0.35000  1.0000
  Mg  Mg1409    1.0  0.20000  0.50000  0.30000  1.0000
  Mg  Mg1410    1.0  0.25000  0.55000  0.30000  1.0000
  Mg  Mg1411    1.0  0.25000  0.51667  0.35000  1.0000
  Mg  Mg1412    1.0  0.20000  0.56667  0.35000  1.0000
  Mg  Mg1413    1.0  0.30000  0.50000  0.30000  1.0000
  Mg  Mg1414    1.0  0.35000  0.55000  0.30000  1.0000
  Mg  Mg1415    1.0  0.35000  0.51667  0.35000  1.0000
  Mg  Mg1416    1.0  0.30000  0.56667  0.35000  1.0000
  Mg  Mg1417    1.0  0.40000  0.50000  0.30000  1.0000
  Mg  Mg1418    1.0  0.45000  0.55000  0.30000  1.0000
  Mg  Mg1419    1.0  0.45000  0.51667  0.35000  1.0000
  Mg  Mg1420    1.0  0.40000  0.56667  0.35000  1.0000
  Mg  Mg1421    1.0  0.50000  0.50000  0.30000  1.0000
  Mg  Mg1422    1.0  0.55000  0.55000  0.30000  1.0000
  Mg  Mg1423    1.0  0.55000  0.51667  0.35000  1.0000
  Mg  Mg1424    1.0  0.50000  0.56667  0.35000  1.0000
  Mg  Mg1425    1.0  0.60000  0.50000  0.30000  1.0000
  Mg  Mg1426    1.0  0.65000  0.55000  0.30000  1.0000
  Mg  Mg1427    1.0  0.65000  0.51667  0.35000  1.0000
  Mg  Mg1428    1.0  0.60000  0.56667  0.35000  1.0000
  Mg  Mg1429    1.0  0.70000  0.50000  0.30000  1.0000
  Mg  Mg1430    1.0  0.75000  0.55000  0.30000  1.0000
  Mg  Mg1431    1.0  0.75000  0.51667  0.35000  1.0000
  Mg  Mg1432    1.0  0.70000  0.56667  0.35000  1.0000
  Mg  Mg1433    1.0  0.80000  0.50000  0.30000  1.0000
  Mg  Mg1434    1.0  0.85000  0.55000  0.30000  1.0000
  Mg  Mg1435    1.0  0.85000  0.51667  0.35000  1.0000
  Mg  Mg1436    1.0  0.80000  0.56667  0.35000  1.0000
  Mg  Mg1437    1.0  0.90000  0.50000  0.30000  1.0000
  Mg  Mg1438    1.0  0.95000  0.55000  0.30000  1.0000
  Mg  Mg1439    1.0  0.95000  0.51667  0.35000  1.0000
  Mg  Mg1440    1.0  0.90000  0.56667  0.35000  1.0000
  Mg  Mg1441    1.0  0.00000  0.60000  0.30000  1.0000
  Mg  Mg1442    1.0  0.05000  0.65000  0.30000  1.0000
  Mg  Mg1443    1.0  0.05000  0.61667  0.35000  1.0000
  Mg  Mg1444    1.0  0.00000  0.66667  0.35000  1.0000
  Mg  Mg1445    1.0  0.10000  0.60000  0.30000  1.0000
  Mg  Mg1446    1.0  0.15000  0.65000  0.30000  1.0000
  Mg  Mg1447    1.0  0.15000  0.61667  0.35000  1.0000
  Mg  Mg1448    1.0  0.10000  0.66667  0.35000  1.0000
  Mg  Mg1449    1.0  0.20000  0.60000  0.30000  1.0000
  Mg  Mg1450    1.0  0.25000  0.65000  0.30000  1.0000
  Mg  Mg1451    1.0  0.25000  0.61667  0.35000  1.0000
  Mg  Mg1452    1.0  0.20000  0.66667  0.35000  1.0000
  Mg  Mg1453    1.0  0.30000  0.60000  0.30000  1.0000
  Mg  Mg1454    1.0  0.35000  0.65000  0.30000  1.0000
  Mg  Mg1455    1.0  0.35000  0.61667  0.35000  1.0000
  Mg  Mg1456    1.0  0.30000  0.66667  0.35000  1.0000
  Mg  Mg1457    1.0  0.40000  0.60000  0.30000  1.0000
  Mg  Mg1458    1.0  0.45000  0.65000  0.30000  1.0000
  Mg  Mg1459    1.0  0.45000  0.61667  0.35000  1.0000
  Mg  Mg1460    1.0  0.40000  0.66667  0.35000  1.0000
  Mg  Mg1461    1.0  0.50000  0.60000  0.30000  1.0000
  Mg  Mg1462    1.0  0.55000  0.65000  0.30000  1.0000
  Mg  Mg1463    1.0  0.55000  0.61667  0.35000  1.0000
  Mg  Mg1464    1.0  0.50000  0.66667  0.35000  1.0000
  Mg  Mg1465    1.0  0.60000  0.60000  0.30000  1.0000
  Mg  Mg1466    1.0  0.65000  0.65000  0.30000  1.0000
  Mg  Mg1467    1.0  0.65000  0.61667  0.35000  1.0000
  Mg  Mg1468    1.0  0.60000  0.66667  0.35000  1.0000
  Mg  Mg1469    1.0  0.70000  0.60000  0.30000  1.0000
  Mg  Mg1470    1.0  0.75000  0.65000  0.30000  1.0000
  Mg  Mg1471    1.0  0.75000  0.61667  0.35000  1.0000
  Mg  Mg1472    1.0  0.70000  0.66667  0.35000  1.0000
  Mg  Mg1473    1.0  0.80000  0.60000  0.30000  1.0000
  Mg  Mg1474    1.0  0.85000  0.65000  0.30000  1.0000
  Mg  Mg1475    1.0  0.85000  0.61667  0.35000  1.0000
  Mg  Mg1476    1.0  0.80000  0.66667  0.35000  1.0000
  Mg  Mg1477    1.0  0.90000  0.60000  0.30000  1.0000
  Mg  Mg1478    1.0  0.95000  0.65000  0.30000  1.0000
  Mg  Mg1479    1.0  0.95000  0.61667  0.35000  1.0000
  Mg  Mg1480    1.0  0.90000  0.66667  0.35000  1.0000
  Mg  Mg1481    1.0  0.00000  0.70000  0.30000  1.0000
  Mg  Mg1482    1.0  0.05000  0.75000  0.30000  1.0000
  Mg  Mg1483    1.0  0.05000  0.71667  0.35000  1.0000
  Mg  Mg1484    1.0  0.00000  0.76667  0.35000  1.0000
  Mg  Mg1485    1.0  0.10000  0.70000  0.30000  1.0000
  Mg  Mg1486    1.0  0.15000  0.75000  0.30000  1.0000
  Mg  Mg1487    1.0  0.15000  0.71667  0.35000  1.0000
  Mg  Mg1488    1.0  0.10000  0.76667  0.35000  1.0000
  Mg  Mg1489    1.0  0.20000  0.70000  0.30000  1.0000
  Mg  Mg1490    1.0  0.25000  0.75000  0.30000  1.0000
  Mg  Mg1491    1.0  0.25000  0.71667  0.35000  1.0000
  Mg  Mg1492    1.0  0.20000  0.76667  0.35000  1.0000
  Mg  Mg1493    1.0  0.30000  0.70000  0.30000  1.0000
  Mg  Mg1494    1.0  0.35000  0.75000  0.30000  1.0000
  Mg  Mg1495    1.0  0.35000  0.71667  0.35000  1.0000
  Mg  Mg1496    1.0  0.30000  0.76667  0.35000  1.0000
  Mg  Mg1497    1.0  0.40000  0.70000  0.30000  1.0000
  Mg  Mg1498    1.0  0.45000  0.75000  0.30000  1.0000
  Mg  Mg1499    1.0  0.45000  0.71667  0.35000  1.0000
  Mg  Mg1500    1.0  0.40000  0.76667  0.35000  1.0000
  Mg  Mg1501    1.0  0.50000  0.70000  0.30000  1.0000
  Mg  Mg1502    1.0  0.55000  0.75000  0.30000  1.0000
  Mg  Mg1503    1.0  0.55000  0.71667  0.35000  1.0000
  Mg  Mg1504    1.0  0.50000  0.76667  0.35000  1.0000
  Mg  Mg1505    1.0  0.60000  0.70000  0.30000  1.0000
  Mg  Mg1506    1.0  0.65000  0.75000  0.30000  1.0000
  Mg  Mg1507    1.0  0.65000  0.71667  0.35000  1.0000
  Mg  Mg1508    1.0  0.60000  0.76667  0.35000  1.0000
  Mg  Mg1509    1.0  0.70000  0.70000  0.30000  1.0000
  Mg  Mg1510    1.0  0.75000  0.75000  0.30000  1.0000
  Mg  Mg1511    1.0  0.75000  0.71667  0.35000  1.0000
  Mg  Mg1512    1.0  0.70000  0.76667  0.35000  1.0000
  Mg  Mg1513    1.0  0.80000  0.70000  0.30000  1.0000
  Mg  Mg1514    1.0  0.85000  0.75000  0.30000  1.0000
  Mg  Mg1515    1.0  0.85000  0.71667  0.35000  1.0000
  Mg  Mg1516    1.0  0.80000  0.76667  0.35000  1.0000
  Mg  Mg1517    1.0  0.90000  0.70000  0.30000  1.0000
  Mg  Mg1518    1.0  0.95000  0.75000  0.30000  1.0000
  Mg  Mg1519    1.0  0.95000  0.71667  0.35000  1.0000
  Mg  Mg1520    1.0  0.90000  0.76667  0.35000  1.0000
  Mg  Mg1521    1.0  0.00000  0.80000  0.30000  1.0000
  Mg  Mg1522    1.0  0.05000  0.85000  0.30000  1.0000
  Mg  Mg1523    1.0  0.05000  0.81667  0.35000  1.0000
  Mg  Mg1524    1.0  0.00000  0.86667  0.35000  1.0000
  Mg  Mg1525    1.0  0.10000  0.80000  0.30000  1.0000
  Mg  Mg1526    1.0  0.15000  0.85000  0.30000  1.0000
  Mg  Mg1527    1.0  0.15000  0.81667  0.35000  1.0000
  Mg  Mg1528    1.0  0.10000  0.86667  0.35000  1.0000
  Mg  Mg1529    1.0  0.20000  0.80000  0.30000  1.0000
  Mg  Mg1530    1.0  0.25000  0.85000  0.30000  1.0000
  Mg  Mg1531    1.0  0.25000  0.81667  0.35000  1.0000
  Mg  Mg1532    1.0  0.20000  0.86667  0.35000  1.0000
  Mg  Mg1533    1.0  0.30000  0.80000  0.30000  1.0000
  Mg  Mg1534    1.0  0.35000  0.85000  0.30000  1.0000
  Mg  Mg1535    1.0  0.35000  0.81667  0.35000  1.0000
  Mg  Mg1536    1.0  0.30000  0.86667  0.35000  1.0000
  Mg  Mg1537    1.0  0.40000  0.80000  0.30000  1.0000
  Mg  Mg1538    1.0  0.45000  0.85000  0.30000  1.0000
  Mg  Mg1539    1.0  0.45000  0.81667  0.35000  1.0000
  Mg  Mg1540    1.0  0.40000  0.86667  0.35000  1.0000
  Mg  Mg1541    1.0  0.50000  0.80000  0.30000  1.0000
  Mg  Mg1542    1.0  0.55000  0.85000  0.30000  1.0000
  Mg  Mg1543    1.0  0.55000  0.81667  0.35000  1.0000
  Mg  Mg1544    1.0  0.50000  0.86667  0.35000  1.0000
  Mg  Mg1545    1.0  0.60000  0.80000  0.30000  1.0000
  Mg  Mg1546    1.0  0.65000  0.85000  0.30000  1.0000
  Mg  Mg1547    1.0  0.65000  0.81667  0.35000  1.0000
  Mg  Mg1548    1.0  0.60000  0.86667  0.35000  1.0000
  Mg  Mg1549    1.0  0.70000  0.80000  0.30000  1.0000
  Mg  Mg1550    1.0  0.75000  0.85000  0.30000  1.0000
  Mg  Mg1551    1.0  0.75000  0.81667  0.35000  1.0000
  Mg  Mg1552    1.0  0.70000  0.86667  0.35000  1.0000
  Mg  Mg1553    1.0  0.80000  0.80000  0.30000  1.0000
  Mg  Mg1554    1.0  0.85000  0.85000  0.30000  1.0000
  Mg  Mg1555    1.0  0.85000  0.81667  0.35000  1.0000
  Mg  Mg1556    1.0  0.80000  0.86667  0.35000  1.0000
  Mg  Mg1557    1.0  0.90000  0.80000  0.30000  1.0000
  Mg  Mg1558    1.0  0.95000  0.85000  0.30000  1.0000
  Mg  Mg1559    1.0  0.95000  0.81667  0.35000  1.0000
  Mg  Mg1560    1.0  0.90000  0.86667  0.35000  1.0000
  Mg  Mg1561    1.0  0.00000  0.90000  0.30000  1.0000
  Mg  Mg1562    1.0  0.05000  0.95000  0.30000  1.0000
  Mg  Mg1563    1.0  0.05000  0.91667  0.35000  1.0000
  Mg  Mg1564    1.0  0.00000  0.96667  0.35000  1.0000
  Mg  Mg1565    1.0  0.10000  0.90000  0.30000  1.0000
  Mg  Mg1566    1.0  0.15000  0.95000  0.30000  1.0000
  Mg  Mg1567    1.0  0.15000  0.91667  0.35000  1.0000
  Mg  Mg1568    1.0  0.10000  0.96667  0.35000  1.0000
  Mg  Mg1569    1.0  0.20000  0.90000  0.30000  1.0000
  Mg  Mg1570    1.0  0.25000  0.95000  0.30000  1.0000
  Mg  Mg1571    1.0  0.25000  0.91667  0.35000  1.0000
  Mg  Mg1572    1.0  0.20000  0.96667  0.35000  1.0000
  Mg  Mg1573    1.0  0.30000  0.90000  0.30000  1.0000
  Mg  Mg1574    1.0  0.35000  0.95000  0.30000  1.0000
  Mg  Mg1575    1.0  0.35000  0.91667  0.35000  1.0000
  Mg  Mg1576    1.0  0.30000  0.96667  0.35000  1.0000
  Mg  Mg1577    1.0  0.40000  0.90000  0.30000  1.0000
  Mg  Mg1578    1.0  0.45000  0.95000  0.30000  1.0000
  Mg  Mg1579    1.0  0.45000  0.91667  0.35000  1.0000
  Mg  Mg1580    1.0  0.40000  0.96667  0.35000  1.0000
  Mg  Mg1581    1.0  0.50000  0.90000  0.30000  1.0000
  Mg  Mg1582    1.0  0.55000  0.95000  0.30000  1.0000
  Mg  Mg1583    1.0  0.55000  0.91667  0.35000  1.0000
  Mg  Mg1584    1.0  0.50000  0.96667  0.35000  1.0000
  Mg  Mg1585    1.0  0.60000  0.90000  0.30000  1.0000
  Mg  Mg1586    1.0  0.65000  0.95000  0.30000  1.0000
  Mg  Mg1587    1.0  0.65000  0.91667  0.35000  1.0000
  Mg  Mg1588    1.0  0.60000  0.96667  0.35000  1.0000
  Mg  Mg1589    1.0  0.70000  0.90000  0.30000  1.0000
  Mg  Mg1590    1.0  0.75000  0.95000  0.30000  1.0000
  Mg  Mg1591    1.0  0.75000  0.91667  0.35000  1.0000
  Mg  Mg1592    1.0  0.70000  0.96667  0.35000  1.0000
  Mg  Mg1593    1.0  0.80000  0.90000  0.30000  1.0000
  Mg  Mg1594    1.0  0.85000  0.95000  0.30000  1.0000
  Mg  Mg1595    1.0  0.85000  0.91667  0.35000  1.0000
  Mg  Mg1596    1.0  0.80000  0.96667  0.35000  1.0000
  Mg  Mg1597    1.0  0.90000  0.90000  0.30000  1.0000
  Mg  Mg1598    1.0  0.95000  0.95000  0.30000  1.0000
  Mg  Mg1599    1.0  0.95000  0.91667  0.35000  1.0000
  Mg  Mg1600    1.0  0.90000  0.96667  0.35000  1.0000
  Mg  Mg1601    1.0  0.00000  0.00000  0.40000  1.0000
  Mg  Mg1602    1.0  0.05000  0.05000  0.40000  1.0000
  Mg  Mg1603    1.0  0.05000  0.01667  0.45000  1.0000
  Mg  Mg1604    1.0  0.00000  0.06667  0.45000  1.0000
  Mg  Mg1605    1.0  0.10000  0.00000  0.40000  1.0000
  Mg  Mg1606    1.0  0.15000  0.05000  0.40000  1.0000
  Mg  Mg1607    1.0  0.15000  0.01667  0.45000  1.0000
  Mg  Mg1608    1.0  0.10000  0.06667  0.45000  1.0000
  Mg  Mg1609    1.0  0.20000  0.00000  0.40000  1.0000
  Mg  Mg1610    1.0  0.25000  0.05000  0.40000  1.0000
  Mg  Mg1611    1.0  0.25000  0.01667  0.45000  1.0000
  Mg  Mg1612    1.0  0.20000  0.06667  0.45000  1.0000
  Mg  Mg1613    1.0  0.30000  0.00000  0.40000  1.0000
  Mg  Mg1614    1.0  0.35000  0.05000  0.40000  1.0000
  Mg  Mg1615    1.0  0.35000  0.01667  0.45000  1.0000
  Mg  Mg1616    1.0  0.30000  0.06667  0.45000  1.0000
  Mg  Mg1617    1.0  0.40000  0.00000  0.40000  1.0000
  Mg  Mg1618    1.0  0.45000  0.05000  0.40000  1.0000
  Mg  Mg1619    1.0  0.45000  0.01667  0.45000  1.0000
  Mg  Mg1620    1.0  0.40000  0.06667  0.45000  1.0000
  Mg  Mg1621    1.0  0.50000  0.00000  0.40000  1.0000
  Mg  Mg1622    1.0  0.55000  0.05000  0.40000  1.0000
  Mg  Mg1623    1.0  0.55000  0.01667  0.45000  1.0000
  Mg  Mg1624    1.0  0.50000  0.06667  0.45000  1.0000
  Mg  Mg1625    1.0  0.60000  0.00000  0.40000  1.0000
  Mg  Mg1626    1.0  0.65000  0.05000  0.40000  1.0000
  Mg  Mg1627    1.0  0.65000  0.01667  0.45000  1.0000
  Mg  Mg1628    1.0  0.60000  0.06667  0.45000  1.0000
  Mg  Mg1629    1.0  0.70000  0.00000  0.40000  1.0000
  Mg  Mg1630    1.0  0.75000  0.05000  0.40000  1.0000
  Mg  Mg1631    1.0  0.75000  0.01667  0.45000  1.0000
  Mg  Mg1632    1.0  0.70000  0.06667  0.45000  1.0000
  Mg  Mg1633    1.0  0.80000  0.00000  0.40000  1.0000
  Mg  Mg1634    1.0  0.85000  0.05000  0.40000  1.0000
  Mg  Mg1635    1.0  0.85000  0.01667  0.45000  1.0000
  Mg  Mg1636    1.0  0.80000  0.06667  0.45000  1.0000
  Mg  Mg1637    1.0  0.90000  0.00000  0.40000  1.0000
  Mg  Mg1638    1.0  0.95000  0.05000  0.40000  1.0000
  Mg  Mg1639    1.0  0.95000  0.01667  0.45000  1.0000
  Mg  Mg1640    1.0  0.90000  0.06667  0.45000  1.0000
  Mg  Mg1641    1.0  0.00000  0.10000  0.40000  1.0000
  Mg  Mg1642    1.0  0.05000  0.15000  0.40000  1.0000
  Mg  Mg1643    1.0  0.05000  0.11667  0.45000  1.0000
  Mg  Mg1644    1.0  0.00000  0.16667  0.45000  1.0000
  Mg  Mg1645    1.0  0.10000  0.10000  0.40000  1.0000
  Mg  Mg1646    1.0  0.15000  0.15000  0.40000  1.0000
  Mg  Mg1647    1.0  0.15000  0.11667  0.45000  1.0000
  Mg  Mg1648    1.0  0.10000  0.16667  0.45000  1.0000
  Mg  Mg1649    1.0  0.20000  0.10000  0.40000  1.0000
  Mg  Mg1650    1.0  0.25000  0.15000  0.40000  1.0000
  Mg  Mg1651    1.0  0.25000  0.11667  0.45000  1.0000
  Mg  Mg1652    1.0  0.20000  0.16667  0.45000  1.0000
  Mg  Mg1653    1.0  0.30000  0.10000  0.40000  1.0000
  Mg  Mg1654    1.0  0.35000  0.15000  0.40000  1.0000
  Mg  Mg1655    1.0  0.35000  0.11667  0.45000  1.0000
  Mg  Mg1656    1.0  0.30000  0.16667  0.45000  1.0000
  Mg  Mg1657    1.0  0.40000  0.10000  0.40000  1.0000
  Mg  Mg1658    1.0  0.45000  0.15000  0.40000  1.0000
  Mg  Mg1659    1.0  0.45000  0.11667  0.45000  1.0000
  Mg  Mg1660    1.0  0.40000  0.16667  0.45000  1.0000
  Mg  Mg1661    1.0  0.50000  0.10000  0.40000  1.0000
  Mg  Mg1662    1.0  0.55000  0.15000  0.40000  1.0000
  Mg  Mg1663    1.0  0.55000  0.11667  0.45000  1.0000
  Mg  Mg1664    1.0  0.50000  0.16667  0.45000  1.0000
  Mg  Mg1665    1.0  0.60000  0.10000  0.40000  1.0000
  Mg  Mg1666    1.0  0.65000  0.15000  0.40000  1.0000
  Mg  Mg1667    1.0  0.65000  0.11667  0.45000  1.0000
  Mg  Mg1668    1.0  0.60000  0.16667  0.45000  1.0000
  Mg  Mg1669    1.0  0.70000  0.10000  0.40000  1.0000
  Mg  Mg1670    1.0  0.75000  0.15000  0.40000  1.0000
  Mg  Mg1671    1.0  0.75000  0.11667  0.45000  1.0000
  Mg  Mg1672    1.0  0.70000  0.16667  0.45000  1.0000
  Mg  Mg1673    1.0  0.80000  0.10000  0.40000  1.0000
  Mg  Mg1674    1.0  0.85000  0.15000  0.40000  1.0000
  Mg  Mg1675    1.0  0.85000  0.11667  0.45000  1.0000
  Mg  Mg1676    1.0  0.80000  0.16667  0.45000  1.0000
  Mg  Mg1677    1.0  0.90000  0.10000  0.40000  1.0000
  Mg  Mg1678    1.0  0.95000  0.15000  0.40000  1.0000
  Mg  Mg1679    1.0  0.95000  0.11667  0.45000  1.0000
  Mg  Mg1680    1.0  0.90000  0.16667  0.45000  1.0000
  Mg  Mg1681    1.0  0.00000  0.20000  0.40000  1.0000
  Mg  Mg1682    1.0  0.05000  0.25000  0.40000  1.0000
  Mg  Mg1683    1.0  0.05000  0.21667  0.45000  1.0000
  Mg  Mg1684    1.0  0.00000  0.26667  0.45000  1.0000
  Mg  Mg1685    1.0  0.10000  0.20000  0.40000  1.0000
  Mg  Mg1686    1.0  0.15000  0.25000  0.40000  1.0000
  Mg  Mg1687    1.0  0.15000  0.21667  0.45000  1.0000
  Mg  Mg1688    1.0  0.10000  0.26667  0.45000  1.0000
  Mg  Mg1689    1.0  0.20000  0.20000  0.40000  1.0000
  Mg  Mg1690    1.0  0.25000  0.25000  0.40000  1.0000
  Mg  Mg1691    1.0  0.25000  0.21667  0.45000  1.0000
  Mg  Mg1692    1.0  0.20000  0.26667  0.45000  1.0000
  Mg  Mg1693    1.0  0.30000  0.20000  0.40000  1.0000
  Mg  Mg1694    1.0  0.35000  0.25000  0.40000  1.0000
  Mg  Mg1695    1.0  0.35000  0.21667  0.45000  1.0000
  Mg  Mg1696    1.0  0.30000  0.26667  0.45000  1.0000
  Mg  Mg1697    1.0  0.40000  0.20000  0.40000  1.0000
  Mg  Mg1698    1.0  0.45000  0.25000  0.40000  1.0000
  Mg  Mg1699    1.0  0.45000  0.21667  0.45000  1.0000
  Mg  Mg1700    1.0  0.40000  0.26667  0.45000  1.0000
  Mg  Mg1701    1.0  0.50000  0.20000  0.40000  1.0000
  Mg  Mg1702    1.0  0.55000  0.25000  0.40000  1.0000
  Mg  Mg1703    1.0  0.55000  0.21667  0.45000  1.0000
  Mg  Mg1704    1.0  0.50000  0.26667  0.45000  1.0000
  Mg  Mg1705    1.0  0.60000  0.20000  0.40000  1.0000
  Mg  Mg1706    1.0  0.65000  0.25000  0.40000  1.0000
  Mg  Mg1707    1.0  0.65000  0.21667  0.45000  1.0000
  Mg  Mg1708    1.0  0.60000  0.26667  0.45000  1.0000
  Mg  Mg1709    1.0  0.70000  0.20000  0.40000  1.0000
  Mg  Mg1710    1.0  0.75000  0.25000  0.40000  1.0000
  Mg  Mg1711    1.0  0.75000  0.21667  0.45000  1.0000
  Mg  Mg1712    1.0  0.70000  0.26667  0.45000  1.0000
  Mg  Mg1713    1.0  0.80000  0.20000  0.40000  1.0000
  Mg  Mg1714    1.0  0.85000  0.25000  0.40000  1.0000
  Mg  Mg1715    1.0  0.85000  0.21667  0.45000  1.0000
  Mg  Mg1716    1.0  0.80000  0.26667  0.45000  1.0000
  Mg  Mg1717    1.0  0.90000  0.20000  0.40000  1.0000
  Mg  Mg1718    1.0  0.95000  0.25000  0.40000  1.0000
  Mg  Mg1719    1.0  0.95000  0.21667  0.45000  1.0000
  Mg  Mg1720    1.0  0.90000  0.26667  0.45000  1.0000
  Mg  Mg1721    1.0  0.00000  0.30000  0.40000  1.0000
  Mg  Mg1722    1.0  0.05000  0.35000  0.40000  1.0000
  Mg  Mg1723    1.0  0.05000  0.31667  0.45000  1.0000
  Mg  Mg1724    1.0  0.00000  0.36667  0.45000  1.0000
  Mg  Mg1725    1.0  0.10000  0.30000  0.40000  1.0000
  Mg  Mg1726    1.0  0.15000  0.35000  0.40000  1.0000
  Mg  Mg1727    1.0  0.15000  0.31667  0.45000  1.0000
  Mg  Mg1728    1.0  0.10000  0.36667  0.45000  1.0000
  Mg  Mg1729    1.0  0.20000  0.30000  0.40000  1.0000
  Mg  Mg1730    1.0  0.25000  0.35000  0.40000  1.0000
  Mg  Mg1731    1.0  0.25000  0.31667  0.45000  1.0000
  Mg  Mg1732    1.0  0.20000  0.36667  0.45000  1.0000
  Mg  Mg1733    1.0  0.30000  0.30000  0.40000  1.0000
  Mg  Mg1734    1.0  0.35000  0.35000  0.40000  1.0000
  Mg  Mg1735    1.0  0.35000  0.31667  0.45000  1.0000
  Mg  Mg1736    1.0  0.30000  0.36667  0.45000  1.0000
  Mg  Mg1737    1.0  0.40000  0.30000  0.40000  1.0000
  Mg  Mg1738    1.0  0.45000  0.35000  0.40000  1.0000
  Mg  Mg1739    1.0  0.45000  0.31667  0.45000  1.0000
  Mg  Mg1740    1.0  0.40000  0.36667  0.45000  1.0000
  Mg  Mg1741    1.0  0.50000  0.30000  0.40000  1.0000
  Mg  Mg1742    1.0  0.55000  0.35000  0.40000  1.0000
  Mg  Mg1743    1.0  0.55000  0.31667  0.45000  1.0000
  Mg  Mg1744    1.0  0.50000  0.36667  0.45000  1.0000
  Mg  Mg1745    1.0  0.60000  0.30000  0.40000  1.0000
  Mg  Mg1746    1.0  0.65000  0.35000  0.40000  1.0000
  Mg  Mg1747    1.0  0.65000  0.31667  0.45000  1.0000
  Mg  Mg1748    1.0  0.60000  0.36667  0.45000  1.0000
  Mg  Mg1749    1.0  0.70000  0.30000  0.40000  1.0000
  Mg  Mg1750    1.0  0.75000  0.35000  0.40000  1.0000
  Mg  Mg1751    1.0  0.75000  0.31667  0.45000  1.0000
  Mg  Mg1752    1.0  0.70000  0.36667  0.45000  1.0000
  Mg  Mg1753    1.0  0.80000  0.30000  0.40000  1.0000
  Mg  Mg1754    1.0  0.85000  0.35000  0.40000  1.0000
  Mg  Mg1755    1.0  0.85000  0.31667  0.45000  1.0000
  Mg  Mg1756    1.0  0.80000  0.36667  0.45000  1.0000
  Mg  Mg1757    1.0  0.90000  0.30000  0.40000  1.0000
  Mg  Mg1758    1.0  0.95000  0.35000  0.40000  1.0000
  Mg  Mg1759    1.0  0.95000  0.31667  0.45000  1.0000
  Mg  Mg1760    1.0  0.90000  0.36667  0.45000  1.0000
  Mg  Mg1761    1.0  0.00000  0.40000  0.40000  1.0000
  Mg  Mg1762    1.0  0.05000  0.45000  0.40000  1.0000
  Mg  Mg1763    1.0  0.05000  0.41667  0.45000  1.0000
  Mg  Mg1764    1.0  0.00000  0.46667  0.45000  1.0000
  Mg  Mg1765    1.0  0.10000  0.40000  0.40000  1.0000
  Mg  Mg1766    1.0  0.15000  0.45000  0.40000  1.0000
  Mg  Mg1767    1.0  0.15000  0.41667  0.45000  1.0000
  Mg  Mg1768    1.0  0.10000  0.46667  0.45000  1.0000
  Mg  Mg1769    1.0  0.20000  0.40000  0.40000  1.0000
  Mg  Mg1770    1.0  0.25000  0.45000  0.40000  1.0000
  Mg  Mg1771    1.0  0.25000  0.41667  0.45000  1.0000
  Mg  Mg1772    1.0  0.20000  0.46667  0.45000  1.0000
  Mg  Mg1773    1.0  0.30000  0.40000  0.40000  1.0000
  Mg  Mg1774    1.0  0.35000  0.45000  0.40000  1.0000
  Mg  Mg1775    1.0  0.35000  0.41667  0.45000  1.0000
  Mg  Mg1776    1.0  0.30000  0.46667  0.45000  1.0000
  Mg  Mg1777    1.0  0.40000  0.40000  0.40000  1.0000
  Mg  Mg1778    1.0  0.45000  0.45000  0.40000  1.0000
  Mg  Mg1779    1.0  0.45000  0.41667  0.45000  1.0000
  Mg  Mg1780    1.0  0.40000  0.46667  0.45000  1.0000
  Mg  Mg1781    1.0  0.50000  0.40000  0.40000  1.0000
  Mg  Mg1782    1.0  0.55000  0.45000  0.40000  1.0000
  Mg  Mg1783    1.0  0.55000  0.41667  0.45000  1.0000
  Mg  Mg1784    1.0  0.50000  0.46667  0.45000  1.0000
  Mg  Mg1785    1.0  0.60000  0.40000  0.40000  1.0000
  Mg  Mg1786    1.0  0.65000  0.45000  0.40000  1.0000
  Mg  Mg1787    1.0  0.65000  0.41667  0.45000  1.0000
  Mg  Mg1788    1.0  0.60000  0.46667  0.45000  1.0000
  Mg  Mg1789    1.0  0.70000  0.40000  0.40000  1.0000
  Mg  Mg1790    1.0  0.75000  0.45000  0.40000  1.0000
  Mg  Mg1791    1.0  0.75000  0.41667  0.45000  1.0000
  Mg  Mg1792    1.0  0.70000  0.46667  0.45000  1.0000
  Mg  Mg1793    1.0  0.80000  0.40000  0.40000  1.0000
  Mg  Mg1794    1.0  0.85000  0.45000  0.40000  1.0000
  Mg  Mg1795    1.0  0.85000  0.41667  0.45000  1.0000
  Mg  Mg1796    1.0  0.80000  0.46667  0.45000  1.0000
  Mg  Mg1797    1.0  0.90000  0.40000  0.40000  1.0000
  Mg  Mg1798    1.0  0.95000  0.45000  0.40000  1.0000
  Mg  Mg1799    1.0  0.95000  0.41667  0.45000  1.0000
  Mg  Mg1800    1.0  0.90000  0.46667  0.45000  1.0000
  Mg  Mg1801    1.0  0.00000  0.50000  0.40000  1.0000
  Mg  Mg1802    1.0  0.05000  0.55000  0.40000  1.0000
  Mg  Mg1803    1.0  0.05000  0.51667  0.45000  1.0000
  Mg  Mg1804    1.0  0.00000  0.56667  0.45000  1.0000
  Mg  Mg1805    1.0  0.10000  0.50000  0.40000  1.0000
  Mg  Mg1806    1.0  0.15000  0.55000  0.40000  1.0000
  Mg  Mg1807    1.0  0.15000  0.51667  0.45000  1.0000
  Mg  Mg1808    1.0  0.10000  0.56667  0.45000  1.0000
  Mg  Mg1809    1.0  0.20000  0.50000  0.40000  1.0000
  Mg  Mg1810    1.0  0.25000  0.55000  0.40000  1.0000
  Mg  Mg1811    1.0  0.25000  0.51667  0.45000  1.0000
  Mg  Mg1812    1.0  0.20000  0.56667  0.45000  1.0000
  Mg  Mg1813    1.0  0.30000  0.50000  0.40000  1.0000
  Mg  Mg1814    1.0  0.35000  0.55000  0.40000  1.0000
  Mg  Mg1815    1.0  0.35000  0.51667  0.45000  1.0000
  Mg  Mg1816    1.0  0.30000  0.56667  0.45000  1.0000
  Mg  Mg1817    1.0  0.40000  0.50000  0.40000  1.0000
  Mg  Mg1818    1.0  0.45000  0.55000  0.40000  1.0000
  Mg  Mg1819    1.0  0.45000  0.51667  0.45000  1.0000
  Mg  Mg1820    1.0  0.40000  0.56667  0.45000  1.0000
  Mg  Mg1821    1.0  0.50000  0.50000  0.40000  1.0000
  Mg  Mg1822    1.0  0.55000  0.55000  0.40000  1.0000
  Mg  Mg1823    1.0  0.55000  0.51667  0.45000  1.0000
  Mg  Mg1824    1.0  0.50000  0.56667  0.45000  1.0000
  Mg  Mg1825    1.0  0.60000  0.50000  0.40000  1.0000
  Mg  Mg1826    1.0  0.65000  0.55000  0.40000  1.0000
  Mg  Mg1827    1.0  0.65000  0.51667  0.45000  1.0000
  Mg  Mg1828    1.0  0.60000  0.56667  0.45000  1.0000
  Mg  Mg1829    1.0  0.70000  0.50000  0.40000  1.0000
  Mg  Mg1830    1.0  0.75000  0.55000  0.40000  1.0000
  Mg  Mg1831    1.0  0.75000  0.51667  0.45000  1.0000
  Mg  Mg1832    1.0  0.70000  0.56667  0.45000  1.0000
  Mg  Mg1833    1.0  0.80000  0.50000  0.40000  1.0000
  Mg  Mg1834    1.0  0.85000  0.55000  0.40000  1.0000
  Mg  Mg1835    1.0  0.85000  0.51667  0.45000  1.0000
  Mg  Mg1836    1.0  0.80000  0.56667  0.45000  1.0000
  Mg  Mg1837    1.0  0.90000  0.50000  0.40000  1.0000
  Mg  Mg1838    1.0  0.95000  0.55000  0.40000  1.0000
  Mg  Mg1839    1.0  0.95000  0.51667  0.45000  1.0000
  Mg  Mg1840    1.0  0.90000  0.56667  0.45000  1.0000
  Mg  Mg1841    1.0  0.00000  0.60000  0.40000  1.0000
  Mg  Mg1842    1.0  0.05000  0.65000  0.40000  1.0000
  Mg  Mg1843    1.0  0.05000  0.61667  0.45000  1.0000
  Mg  Mg1844    1.0  0.00000  0.66667  0.45000  1.0000
  Mg  Mg1845    1.0  0.10000  0.60000  0.40000  1.0000
  Mg  Mg1846    1.0  0.15000  0.65000  0.40000  1.0000
  Mg  Mg1847    1.0  0.15000  0.61667  0.45000  1.0000
  Mg  Mg1848    1.0  0.10000  0.66667  0.45000  1.0000
  Mg  Mg1849    1.0  0.20000  0.60000  0.40000  1.0000
  Mg  Mg1850    1.0  0.25000  0.65000  0.40000  1.0000
  Mg  Mg1851    1.0  0.25000  0.61667  0.45000  1.0000
  Mg  Mg1852    1.0  0.20000  0.66667  0.45000  1.0000
  Mg  Mg1853    1.0  0.30000  0.60000  0.40000  1.0000
  Mg  Mg1854    1.0  0.35000  0.65000  0.40000  1.0000
  Mg  Mg1855    1.0  0.35000  0.61667  0.45000  1.0000
  Mg  Mg1856    1.0  0.30000  0.66667  0.45000  1.0000
  Mg  Mg1857    1.0  0.40000  0.60000  0.40000  1.0000
  Mg  Mg1858    1.0  0.45000  0.65000  0.40000  1.0000
  Mg  Mg1859    1.0  0.45000  0.61667  0.45000  1.0000
  Mg  Mg1860    1.0  0.40000  0.66667  0.45000  1.0000
  Mg  Mg1861    1.0  0.50000  0.60000  0.40000  1.0000
  Mg  Mg1862    1.0  0.55000  0.65000  0.40000  1.0000
  Mg  Mg1863    1.0  0.55000  0.61667  0.45000  1.0000
  Mg  Mg1864    1.0  0.50000  0.66667  0.45000  1.0000
  Mg  Mg1865    1.0  0.60000  0.60000  0.40000  1.0000
  Mg  Mg1866    1.0  0.65000  0.65000  0.40000  1.0000
  Mg  Mg1867    1.0  0.65000  0.61667  0.45000  1.0000
  Mg  Mg1868    1.0  0.60000  0.66667  0.45000  1.0000
  Mg  Mg1869    1.0  0.70000  0.60000  0.40000  1.0000
  Mg  Mg1870    1.0  0.75000  0.65000  0.40000  1.0000
  Mg  Mg1871    1.0  0.75000  0.61667  0.45000  1.0000
  Mg  Mg1872    1.0  0.70000  0.66667  0.45000  1.0000
  Mg  Mg1873    1.0  0.80000  0.60000  0.40000  1.0000
  Mg  Mg1874    1.0  0.85000  0.65000  0.40000  1.0000
  Mg  Mg1875    1.0  0.85000  0.61667  0.45000  1.0000
  Mg  Mg1876    1.0  0.80000  0.66667  0.45000  1.0000
  Mg  Mg1877    1.0  0.90000  0.60000  0.40000  1.0000
  Mg  Mg1878    1.0  0.95000  0.65000  0.40000  1.0000
  Mg  Mg1879    1.0  0.95000  0.61667  0.45000  1.0000
  Mg  Mg1880    1.0  0.90000  0.66667  0.45000  1.0000
  Mg  Mg1881    1.0  0.00000  0.70000  0.40000  1.0000
  Mg  Mg1882    1.0  0.05000  0.75000  0.40000  1.0000
  Mg  Mg1883    1.0  0.05000  0.71667  0.45000  1.0000
  Mg  Mg1884    1.0  0.00000  0.76667  0.45000  1.0000
  Mg  Mg1885    1.0  0.10000  0.70000  0.40000  1.0000
  Mg  Mg1886    1.0  0.15000  0.75000  0.40000  1.0000
  Mg  Mg1887    1.0  0.15000  0.71667  0.45000  1.0000
  Mg  Mg1888    1.0  0.10000  0.76667  0.45000  1.0000
  Mg  Mg1889    1.0  0.20000  0.70000  0.40000  1.0000
  Mg  Mg1890    1.0  0.25000  0.75000  0.40000  1.0000
  Mg  Mg1891    1.0  0.25000  0.71667  0.45000  1.0000
  Mg  Mg1892    1.0  0.20000  0.76667  0.45000  1.0000
  Mg  Mg1893    1.0  0.30000  0.70000  0.40000  1.0000
  Mg  Mg1894    1.0  0.35000  0.75000  0.40000  1.0000
  Mg  Mg1895    1.0  0.35000  0.71667  0.45000  1.0000
  Mg  Mg1896    1.0  0.30000  0.76667  0.45000  1.0000
  Mg  Mg1897    1.0  0.40000  0.70000  0.40000  1.0000
  Mg  Mg1898    1.0  0.45000  0.75000  0.40000  1.0000
  Mg  Mg1899    1.0  0.45000  0.71667  0.45000  1.0000
  Mg  Mg1900    1.0  0.40000  0.76667  0.45000  1.0000
  Mg  Mg1901    1.0  0.50000  0.70000  0.40000  1.0000
  Mg  Mg1902    1.0  0.55000  0.75000  0.40000  1.0000
  Mg  Mg1903    1.0  0.55000  0.71667  0.45000  1.0000
  Mg  Mg1904    1.0  0.50000  0.76667  0.45000  1.0000
  Mg  Mg1905    1.0  0.60000  0.70000  0.40000  1.0000
  Mg  Mg1906    1.0  0.65000  0.75000  0.40000  1.0000
  Mg  Mg1907    1.0  0.65000  0.71667  0.45000  1.0000
  Mg  Mg1908    1.0  0.60000  0.76667  0.45000  1.0000
  Mg  Mg1909    1.0  0.70000  0.70000  0.40000  1.0000
  Mg  Mg1910    1.0  0.75000  0.75000  0.40000  1.0000
  Mg  Mg1911    1.0  0.75000  0.71667  0.45000  1.0000
  Mg  Mg1912    1.0  0.70000  0.76667  0.45000  1.0000
  Mg  Mg1913    1.0  0.80000  0.70000  0.40000  1.0000
  Mg  Mg1914    1.0  0.85000  0.75000  0.40000  1.0000
  Mg  Mg1915    1.0  0.85000  0.71667  0.45000  1.0000
  Mg  Mg1916    1.0  0.80000  0.76667  0.45000  1.0000
  Mg  Mg1917    1.0  0.90000  0.70000  0.40000  1.0000
  Mg  Mg1918    1.0  0.95000  0.75000  0.40000  1.0000
  Mg  Mg1919    1.0  0.95000  0.71667  0.45000  1.0000
  Mg  Mg1920    1.0  0.90000  0.76667  0.45000  1.0000
  Mg  Mg1921    1.0  0.00000  0.80000  0.40000  1.0000
  Mg  Mg1922    1.0  0.05000  0.85000  0.40000  1.0000
  Mg  Mg1923    1.0  0.05000  0.81667  0.45000  1.0000
  Mg  Mg1924    1.0  0.00000  0.86667  0.45000  1.0000
  Mg  Mg1925    1.0  0.10000  0.80000  0.40000  1.0000
  Mg  Mg1926    1.0  0.15000  0.85000  0.40000  1.0000
  Mg  Mg1927    1.0  0.15000  0.81667  0.45000  1.0000
  Mg  Mg1928    1.0  0.10000  0.86667  0.45000  1.0000
  Mg  Mg1929    1.0  0.20000  0.80000  0.40000  1.0000
  Mg  Mg1930    1.0  0.25000  0.85000  0.40000  1.0000
  Mg  Mg1931    1.0  0.25000  0.81667  0.45000  1.0000
  Mg  Mg1932    1.0  0.20000  0.86667  0.45000  1.0000
  Mg  Mg1933    1.0  0.30000  0.80000  0.40000  1.0000
  Mg  Mg1934    1.0  0.35000  0.85000  0.40000  1.0000
  Mg  Mg1935    1.0  0.35000  0.81667  0.45000  1.0000
  Mg  Mg1936    1.0  0.30000  0.86667  0.45000  1.0000
  Mg  Mg1937    1.0  0.40000  0.80000  0.40000  1.0000
  Mg  Mg1938    1.0  0.45000  0.85000  0.40000  1.0000
  Mg  Mg1939    1.0  0.45000  0.81667  0.45000  1.0000
  Mg  Mg1940    1.0  0.40000  0.86667  0.45000  1.0000
  Mg  Mg1941    1.0  0.50000  0.80000  0.40000  1.0000
  Mg  Mg1942    1.0  0.55000  0.85000  0.40000  1.0000
  Mg  Mg1943    1.0  0.55000  0.81667  0.45000  1.0000
  Mg  Mg1944    1.0  0.50000  0.86667  0.45000  1.0000
  Mg  Mg1945    1.0  0.60000  0.80000  0.40000  1.0000
  Mg  Mg1946    1.0  0.65000  0.85000  0.40000  1.0000
  Mg  Mg1947    1.0  0.65000  0.81667  0.45000  1.0000
  Mg  Mg1948    1.0  0.60000  0.86667  0.45000  1.0000
  Mg  Mg1949    1.0  0.70000  0.80000  0.40000  1.0000
  Mg  Mg1950    1.0  0.75000  0.85000  0.40000  1.0000
  Mg  Mg1951    1.0  0.75000  0.81667  0.45000  1.0000
  Mg  Mg1952    1.0  0.70000  0.86667  0.45000  1.0000
  Mg  Mg1953    1.0  0.80000  0.80000  0.40000  1.0000
  Mg  Mg1954    1.0  0.85000  0.85000  0.40000  1.0000
  Mg  Mg1955    1.0  0.85000  0.81667  0.45000  1.0000
  Mg  Mg1956    1.0  0.80000  0.86667  0.45000  1.0000
  Mg  Mg1957    1.0  0.90000  0.80000  0.40000  1.0000
  Mg  Mg1958    1.0  0.95000  0.85000  0.40000  1.0000
  Mg  Mg1959    1.0  0.95000  0.81667  0.45000  1.0000
  Mg  Mg1960    1.0  0.90000  0.86667  0.45000  1.0000
  Mg  Mg1961    1.0  0.00000  0.90000  0.40000  1.0000
  Mg  Mg1962    1.0  0.05000  0.95000  0.40000  1.0000
  Mg  Mg1963    1.0  0.05000  0.91667  0.45000  1.0000
  Mg  Mg1964    1.0  0.00000  0.96667  0.45000  1.0000
  Mg  Mg1965    1.0  0.10000  0.90000  0.40000  1.0000
  Mg  Mg1966    1.0  0.15000  0.95000  0.40000  1.0000
  Mg  Mg1967    1.0  0.15000  0.91667  0.45000  1.0000
  Mg  Mg1968    1.0  0.10000  0.96667  0.45000  1.0000
  Mg  Mg1969    1.0  0.20000  0.90000  0.40000  1.0000
  Mg  Mg1970    1.0  0.25000  0.95000  0.40000  1.0000
  Mg  Mg1971    1.0  0.25000  0.91667  0.45000  1.0000
  Mg  Mg1972    1.0  0.20000  0.96667  0.45000  1.0000
  Mg  Mg1973    1.0  0.30000  0.90000  0.40000  1.0000
  Mg  Mg1974    1.0  0.35000  0.95000  0.40000  1.0000
  Mg  Mg1975    1.0  0.35000  0.91667  0.45000  1.0000
  Mg  Mg1976    1.0  0.30000  0.96667  0.45000  1.0000
  Mg  Mg1977    1.0  0.40000  0.90000  0.40000  1.0000
  Mg  Mg1978    1.0  0.45000  0.95000  0.40000  1.0000
  Mg  Mg1979    1.0  0.45000  0.91667  0.45000  1.0000
  Mg  Mg1980    1.0  0.40000  0.96667  0.45000  1.0000
  Mg  Mg1981    1.0  0.50000  0.90000  0.40000  1.0000
  Mg  Mg1982    1.0  0.55000  0.95000  0.40000  1.0000
  Mg  Mg1983    1.0  0.55000  0.91667  0.45000  1.0000
  Mg  Mg1984    1.0  0.50000  0.96667  0.45000  1.0000
  Mg  Mg1985    1.0  0.60000  0.90000  0.40000  1.0000
  Mg  Mg1986    1.0  0.65000  0.95000  0.40000  1.0000
  Mg  Mg1987    1.0  0.65000  0.91667  0.45000  1.0000
  Mg  Mg1988    1.0  0.60000  0.96667  0.45000  1.0000
  Mg  Mg1989    1.0  0.70000  0.90000  0.40000  1.0000
  Mg  Mg1990    1.0  0.75000  0.95000  0.40000  1.0000
  Mg  Mg1991    1.0  0.75000  0.91667  0.45000  1.0000
  Mg  Mg1992    1.0  0.70000  0.96667  0.45000  1.0000
  Mg  Mg1993    1.0  0.80000  0.90000  0.40000  1.0000
  Mg  Mg1994    1.0  0.85000  0.95000  0.40000  1.0000
  Mg  Mg1995    1.0  0.85000  0.91667  0.45000  1.0000
  Mg  Mg1996    1.0  0.80000  0.96667  0.45000  1.0000
  Mg  Mg1997    1.0  0.90000  0.90000  0.40000  1.0000
  Mg  Mg1998    1.0  0.95000  0.95000  0.40000  1.0000
  Mg  Mg1999    1.0  0.95000  0.91667  0.45000  1.0000
  Mg  Mg2000    1.0  0.90000  0.96667  0.45000  1.0000
  Mg  Mg2001    1.0  0.00000  0.00000  0.50000  1.0000
  Mg  Mg2002    1.0  0.05000  0.05000  0.50000  1.0000
  Mg  Mg2003    1.0  0.05000  0.01667  0.55000  1.0000
  Mg  Mg2004    1.0  0.00000  0.06667  0.55000  1.0000
  Mg  Mg2005    1.0  0.10000  0.00000  0.50000  1.0000
  Mg  Mg2006    1.0  0.15000  0.05000  0.50000  1.0000
  Mg  Mg2007    1.0  0.15000  0.01667  0.55000  1.0000
  Mg  Mg2008    1.0  0.10000  0.06667  0.55000  1.0000
  Mg  Mg2009    1.0  0.20000  0.00000  0.50000  1.0000
  Mg  Mg2010    1.0  0.25000  0.05000  0.50000  1.0000
  Mg  Mg2011    1.0  0.25000  0.01667  0.55000  1.0000
  Mg  Mg2012    1.0  0.20000  0.06667  0.55000  1.0000
  Mg  Mg2013    1.0  0.30000  0.00000  0.50000  1.0000
  Mg  Mg2014    1.0  0.35000  0.05000  0.50000  1.0000
  Mg  Mg2015    1.0  0.35000  0.01667  0.55000  1.0000
  Mg  Mg2016    1.0  0.30000  0.06667  0.55000  1.0000
  Mg  Mg2017    1.0  0.40000  0.00000  0.50000  1.0000
  Mg  Mg2018    1.0  0.45000  0.05000  0.50000  1.0000
  Mg  Mg2019    1.0  0.45000  0.01667  0.55000  1.0000
  Mg  Mg2020    1.0  0.40000  0.06667  0.55000  1.0000
  Mg  Mg2021    1.0  0.50000  0.00000  0.50000  1.0000
  Mg  Mg2022    1.0  0.55000  0.05000  0.50000  1.0000
  Mg  Mg2023    1.0  0.55000  0.01667  0.55000  1.0000
  Mg  Mg2024    1.0  0.50000  0.06667  0.55000  1.0000
  Mg  Mg2025    1.0  0.60000  0.00000  0.50000  1.0000
  Mg  Mg2026    1.0  0.65000  0.05000  0.50000  1.0000
  Mg  Mg2027    1.0  0.65000  0.01667  0.55000  1.0000
  Mg  Mg2028    1.0  0.60000  0.06667  0.55000  1.0000
  Mg  Mg2029    1.0  0.70000  0.00000  0.50000  1.0000
  Mg  Mg2030    1.0  0.75000  0.05000  0.50000  1.0000
  Mg  Mg2031    1.0  0.75000  0.01667  0.55000  1.0000
  Mg  Mg2032    1.0  0.70000  0.06667  0.55000  1.0000
  Mg  Mg2033    1.0  0.80000  0.00000  0.50000  1.0000
  Mg  Mg2034    1.0  0.85000  0.05000  0.50000  1.0000
  Mg  Mg2035    1.0  0.85000  0.01667  0.55000  1.0000
  Mg  Mg2036    1.0  0.80000  0.06667  0.55000  1.0000
  Mg  Mg2037    1.0  0.90000  0.00000  0.50000  1.0000
  Mg  Mg2038    1.0  0.95000  0.05000  0.50000  1.0000
  Mg  Mg2039    1.0  0.95000  0.01667  0.55000  1.0000
  Mg  Mg2040    1.0  0.90000  0.06667  0.55000  1.0000
  Mg  Mg2041    1.0  0.00000  0.10000  0.50000  1.0000
  Mg  Mg2042    1.0  0.05000  0.15000  0.50000  1.0000
  Mg  Mg2043    1.0  0.05000  0.11667  0.55000  1.0000
  Mg  Mg2044    1.0  0.00000  0.16667  0.55000  1.0000
  Mg  Mg2045    1.0  0.10000  0.10000  0.50000  1.0000
  Mg  Mg2046    1.0  0.15000  0.15000  0.50000  1.0000
  Mg  Mg2047    1.0  0.15000  0.11667  0.55000  1.0000
  Mg  Mg2048    1.0  0.10000  0.16667  0.55000  1.0000
  Mg  Mg2049    1.0  0.20000  0.10000  0.50000  1.0000
  Mg  Mg2050    1.0  0.25000  0.15000  0.50000  1.0000
  Mg  Mg2051    1.0  0.25000  0.11667  0.55000  1.0000
  Mg  Mg2052    1.0  0.20000  0.16667  0.55000  1.0000
  Mg  Mg2053    1.0  0.30000  0.10000  0.50000  1.0000
  Mg  Mg2054    1.0  0.35000  0.15000  0.50000  1.0000
  Mg  Mg2055    1.0  0.35000  0.11667  0.55000  1.0000
  Mg  Mg2056    1.0  0.30000  0.16667  0.55000  1.0000
  Mg  Mg2057    1.0  0.40000  0.10000  0.50000  1.0000
  Mg  Mg2058    1.0  0.45000  0.15000  0.50000  1.0000
  Mg  Mg2059    1.0  0.45000  0.11667  0.55000  1.0000
  Mg  Mg2060    1.0  0.40000  0.16667  0.55000  1.0000
  Mg  Mg2061    1.0  0.50000  0.10000  0.50000  1.0000
  Mg  Mg2062    1.0  0.55000  0.15000  0.50000  1.0000
  Mg  Mg2063    1.0  0.55000  0.11667  0.55000  1.0000
  Mg  Mg2064    1.0  0.50000  0.16667  0.55000  1.0000
  Mg  Mg2065    1.0  0.60000  0.10000  0.50000  1.0000
  Mg  Mg2066    1.0  0.65000  0.15000  0.50000  1.0000
  Mg  Mg2067    1.0  0.65000  0.11667  0.55000  1.0000
  Mg  Mg2068    1.0  0.60000  0.16667  0.55000  1.0000
  Mg  Mg2069    1.0  0.70000  0.10000  0.50000  1.0000
  Mg  Mg2070    1.0  0.75000  0.15000  0.50000  1.0000
  Mg  Mg2071    1.0  0.75000  0.11667  0.55000  1.0000
  Mg  Mg2072    1.0  0.70000  0.16667  0.55000  1.0000
  Mg  Mg2073    1.0  0.80000  0.10000  0.50000  1.0000
  Mg  Mg2074    1.0  0.85000  0.15000  0.50000  1.0000
  Mg  Mg2075    1.0  0.85000  0.11667  0.55000  1.0000
  Mg  Mg2076    1.0  0.80000  0.16667  0.55000  1.0000
  Mg  Mg2077    1.0  0.90000  0.10000  0.50000  1.0000
  Mg  Mg2078    1.0  0.95000  0.15000  0.50000  1.0000
  Mg  Mg2079    1.0  0.95000  0.11667  0.55000  1.0000
  Mg  Mg2080    1.0  0.90000  0.16667  0.55000  1.0000
  Mg  Mg2081    1.0  0.00000  0.20000  0.50000  1.0000
  Mg  Mg2082    1.0  0.05000  0.25000  0.50000  1.0000
  Mg  Mg2083    1.0  0.05000  0.21667  0.55000  1.0000
  Mg  Mg2084    1.0  0.00000  0.26667  0.55000  1.0000
  Mg  Mg2085    1.0  0.10000  0.20000  0.50000  1.0000
  Mg  Mg2086    1.0  0.15000  0.25000  0.50000  1.0000
  Mg  Mg2087    1.0  0.15000  0.21667  0.55000  1.0000
  Mg  Mg2088    1.0  0.10000  0.26667  0.55000  1.0000
  Mg  Mg2089    1.0  0.20000  0.20000  0.50000  1.0000
  Mg  Mg2090    1.0  0.25000  0.25000  0.50000  1.0000
  Mg  Mg2091    1.0  0.25000  0.21667  0.55000  1.0000
  Mg  Mg2092    1.0  0.20000  0.26667  0.55000  1.0000
  Mg  Mg2093    1.0  0.30000  0.20000  0.50000  1.0000
  Mg  Mg2094    1.0  0.35000  0.25000  0.50000  1.0000
  Mg  Mg2095    1.0  0.35000  0.21667  0.55000  1.0000
  Mg  Mg2096    1.0  0.30000  0.26667  0.55000  1.0000
  Mg  Mg2097    1.0  0.40000  0.20000  0.50000  1.0000
  Mg  Mg2098    1.0  0.45000  0.25000  0.50000  1.0000
  Mg  Mg2099    1.0  0.45000  0.21667  0.55000  1.0000
  Mg  Mg2100    1.0  0.40000  0.26667  0.55000  1.0000
  Mg  Mg2101    1.0  0.50000  0.20000  0.50000  1.0000
  Mg  Mg2102    1.0  0.55000  0.25000  0.50000  1.0000
  Mg  Mg2103    1.0  0.55000  0.21667  0.55000  1.0000
  Mg  Mg2104    1.0  0.50000  0.26667  0.55000  1.0000
  Mg  Mg2105    1.0  0.60000  0.20000  0.50000  1.0000
  Mg  Mg2106    1.0  0.65000  0.25000  0.50000  1.0000
  Mg  Mg2107    1.0  0.65000  0.21667  0.55000  1.0000
  Mg  Mg2108    1.0  0.60000  0.26667  0.55000  1.0000
  Mg  Mg2109    1.0  0.70000  0.20000  0.50000  1.0000
  Mg  Mg2110    1.0  0.75000  0.25000  0.50000  1.0000
  Mg  Mg2111    1.0  0.75000  0.21667  0.55000  1.0000
  Mg  Mg2112    1.0  0.70000  0.26667  0.55000  1.0000
  Mg  Mg2113    1.0  0.80000  0.20000  0.50000  1.0000
  Mg  Mg2114    1.0  0.85000  0.25000  0.50000  1.0000
  Mg  Mg2115    1.0  0.85000  0.21667  0.55000  1.0000
  Mg  Mg2116    1.0  0.80000  0.26667  0.55000  1.0000
  Mg  Mg2117    1.0  0.90000  0.20000  0.50000  1.0000
  Mg  Mg2118    1.0  0.95000  0.25000  0.50000  1.0000
  Mg  Mg2119    1.0  0.95000  0.21667  0.55000  1.0000
  Mg  Mg2120    1.0  0.90000  0.26667  0.55000  1.0000
  Mg  Mg2121    1.0  0.00000  0.30000  0.50000  1.0000
  Mg  Mg2122    1.0  0.05000  0.35000  0.50000  1.0000
  Mg  Mg2123    1.0  0.05000  0.31667  0.55000  1.0000
  Mg  Mg2124    1.0  0.00000  0.36667  0.55000  1.0000
  Mg  Mg2125    1.0  0.10000  0.30000  0.50000  1.0000
  Mg  Mg2126    1.0  0.15000  0.35000  0.50000  1.0000
  Mg  Mg2127    1.0  0.15000  0.31667  0.55000  1.0000
  Mg  Mg2128    1.0  0.10000  0.36667  0.55000  1.0000
  Mg  Mg2129    1.0  0.20000  0.30000  0.50000  1.0000
  Mg  Mg2130    1.0  0.25000  0.35000  0.50000  1.0000
  Mg  Mg2131    1.0  0.25000  0.31667  0.55000  1.0000
  Mg  Mg2132    1.0  0.20000  0.36667  0.55000  1.0000
  Mg  Mg2133    1.0  0.30000  0.30000  0.50000  1.0000
  Mg  Mg2134    1.0  0.35000  0.35000  0.50000  1.0000
  Mg  Mg2135    1.0  0.35000  0.31667  0.55000  1.0000
  Mg  Mg2136    1.0  0.30000  0.36667  0.55000  1.0000
  Mg  Mg2137    1.0  0.40000  0.30000  0.50000  1.0000
  Mg  Mg2138    1.0  0.45000  0.35000  0.50000  1.0000
  Mg  Mg2139    1.0  0.45000  0.31667  0.55000  1.0000
  Mg  Mg2140    1.0  0.40000  0.36667  0.55000  1.0000
  Mg  Mg2141    1.0  0.50000  0.30000  0.50000  1.0000
  Mg  Mg2142    1.0  0.55000  0.35000  0.50000  1.0000
  Mg  Mg2143    1.0  0.55000  0.31667  0.55000  1.0000
  Mg  Mg2144    1.0  0.50000  0.36667  0.55000  1.0000
  Mg  Mg2145    1.0  0.60000  0.30000  0.50000  1.0000
  Mg  Mg2146    1.0  0.65000  0.35000  0.50000  1.0000
  Mg  Mg2147    1.0  0.65000  0.31667  0.55000  1.0000
  Mg  Mg2148    1.0  0.60000  0.36667  0.55000  1.0000
  Mg  Mg2149    1.0  0.70000  0.30000  0.50000  1.0000
  Mg  Mg2150    1.0  0.75000  0.35000  0.50000  1.0000
  Mg  Mg2151    1.0  0.75000  0.31667  0.55000  1.0000
  Mg  Mg2152    1.0  0.70000  0.36667  0.55000  1.0000
  Mg  Mg2153    1.0  0.80000  0.30000  0.50000  1.0000
  Mg  Mg2154    1.0  0.85000  0.35000  0.50000  1.0000
  Mg  Mg2155    1.0  0.85000  0.31667  0.55000  1.0000
  Mg  Mg2156    1.0  0.80000  0.36667  0.55000  1.0000
  Mg  Mg2157    1.0  0.90000  0.30000  0.50000  1.0000
  Mg  Mg2158    1.0  0.95000  0.35000  0.50000  1.0000
  Mg  Mg2159    1.0  0.95000  0.31667  0.55000  1.0000
  Mg  Mg2160    1.0  0.90000  0.36667  0.55000  1.0000
  Mg  Mg2161    1.0  0.00000  0.40000  0.50000  1.0000
  Mg  Mg2162    1.0  0.05000  0.45000  0.50000  1.0000
  Mg  Mg2163    1.0  0.05000  0.41667  0.55000  1.0000
  Mg  Mg2164    1.0  0.00000  0.46667  0.55000  1.0000
  Mg  Mg2165    1.0  0.10000  0.40000  0.50000  1.0000
  Mg  Mg2166    1.0  0.15000  0.45000  0.50000  1.0000
  Mg  Mg2167    1.0  0.15000  0.41667  0.55000  1.0000
  Mg  Mg2168    1.0  0.10000  0.46667  0.55000  1.0000
  Mg  Mg2169    1.0  0.20000  0.40000  0.50000  1.0000
  Mg  Mg2170    1.0  0.25000  0.45000  0.50000  1.0000
  Mg  Mg2171    1.0  0.25000  0.41667  0.55000  1.0000
  Mg  Mg2172    1.0  0.20000  0.46667  0.55000  1.0000
  Mg  Mg2173    1.0  0.30000  0.40000  0.50000  1.0000
  Mg  Mg2174    1.0  0.35000  0.45000  0.50000  1.0000
  Mg  Mg2175    1.0  0.35000  0.41667  0.55000  1.0000
  Mg  Mg2176    1.0  0.30000  0.46667  0.55000  1.0000
  Mg  Mg2177    1.0  0.40000  0.40000  0.50000  1.0000
  Mg  Mg2178    1.0  0.45000  0.45000  0.50000  1.0000
  Mg  Mg2179    1.0  0.45000  0.41667  0.55000  1.0000
  Mg  Mg2180    1.0  0.40000  0.46667  0.55000  1.0000
  Mg  Mg2181    1.0  0.50000  0.40000  0.50000  1.0000
  Mg  Mg2182    1.0  0.55000  0.45000  0.50000  1.0000
  Mg  Mg2183    1.0  0.55000  0.41667  0.55000  1.0000
  Mg  Mg2184    1.0  0.50000  0.46667  0.55000  1.0000
  Mg  Mg2185    1.0  0.60000  0.40000  0.50000  1.0000
  Mg  Mg2186    1.0  0.65000  0.45000  0.50000  1.0000
  Mg  Mg2187    1.0  0.65000  0.41667  0.55000  1.0000
  Mg  Mg2188    1.0  0.60000  0.46667  0.55000  1.0000
  Mg  Mg2189    1.0  0.70000  0.40000  0.50000  1.0000
  Mg  Mg2190    1.0  0.75000  0.45000  0.50000  1.0000
  Mg  Mg2191    1.0  0.75000  0.41667  0.55000  1.0000
  Mg  Mg2192    1.0  0.70000  0.46667  0.55000  1.0000
  Mg  Mg2193    1.0  0.80000  0.40000  0.50000  1.0000
  Mg  Mg2194    1.0  0.85000  0.45000  0.50000  1.0000
  Mg  Mg2195    1.0  0.85000  0.41667  0.55000  1.0000
  Mg  Mg2196    1.0  0.80000  0.46667  0.55000  1.0000
  Mg  Mg2197    1.0  0.90000  0.40000  0.50000  1.0000
  Mg  Mg2198    1.0  0.95000  0.45000  0.50000  1.0000
  Mg  Mg2199    1.0  0.95000  0.41667  0.55000  1.0000
  Mg  Mg2200    1.0  0.90000  0.46667  0.55000  1.0000
  Mg  Mg2201    1.0  0.00000  0.50000  0.50000  1.0000
  Mg  Mg2202    1.0  0.05000  0.55000  0.50000  1.0000
  Mg  Mg2203    1.0  0.05000  0.51667  0.55000  1.0000
  Mg  Mg2204    1.0  0.00000  0.56667  0.55000  1.0000
  Mg  Mg2205    1.0  0.10000  0.50000  0.50000  1.0000
  Mg  Mg2206    1.0  0.15000  0.55000  0.50000  1.0000
  Mg  Mg2207    1.0  0.15000  0.51667  0.55000  1.0000
  Mg  Mg2208    1.0  0.10000  0.56667  0.55000  1.0000
  Mg  Mg2209    1.0  0.20000  0.50000  0.50000  1.0000
  Mg  Mg2210    1.0  0.25000  0.55000  0.50000  1.0000
  Mg  Mg2211    1.0  0.25000  0.51667  0.55000  1.0000
  Mg  Mg2212    1.0  0.20000  0.56667  0.55000  1.0000
  Mg  Mg2213    1.0  0.30000  0.50000  0.50000  1.0000
  Mg  Mg2214    1.0  0.35000  0.55000  0.50000  1.0000
  Mg  Mg2215    1.0  0.35000  0.51667  0.55000  1.0000
  Mg  Mg2216    1.0  0.30000  0.56667  0.55000  1.0000
  Mg  Mg2217    1.0  0.40000  0.50000  0.50000  1.0000
  Mg  Mg2218    1.0  0.45000  0.55000  0.50000  1.0000
  Mg  Mg2219    1.0  0.45000  0.51667  0.55000  1.0000
  Mg  Mg2220    1.0  0.40000  0.56667  0.55000  1.0000
  Mg  Mg2221    1.0  0.50000  0.50000  0.50000  1.0000
  Mg  Mg2222    1.0  0.55000  0.55000  0.50000  1.0000
  Mg  Mg2223    1.0  0.55000  0.51667  0.55000  1.0000
  Mg  Mg2224    1.0  0.50000  0.56667  0.55000  1.0000
  Mg  Mg2225    1.0  0.60000  0.50000  0.50000  1.0000
  Mg  Mg2226    1.0  0.65000  0.55000  0.50000  1.0000
  Mg  Mg2227    1.0  0.65000  0.51667  0.55000  1.0000
  Mg  Mg2228    1.0  0.60000  0.56667  0.55000  1.0000
  Mg  Mg2229    1.0  0.70000  0.50000  0.50000  1.0000
  Mg  Mg2230    1.0  0.75000  0.55000  0.50000  1.0000
  Mg  Mg2231    1.0  0.75000  0.51667  0.55000  1.0000
  Mg  Mg2232    1.0  0.70000  0.56667  0.55000  1.0000
  Mg  Mg2233    1.0  0.80000  0.50000  0.50000  1.0000
  Mg  Mg2234    1.0  0.85000  0.55000  0.50000  1.0000
  Mg  Mg2235    1.0  0.85000  0.51667  0.55000  1.0000
  Mg  Mg2236    1.0  0.80000  0.56667  0.55000  1.0000
  Mg  Mg2237    1.0  0.90000  0.50000  0.50000  1.0000
  Mg  Mg2238    1.0  0.95000  0.55000  0.50000  1.0000
  Mg  Mg2239    1.0  0.95000  0.51667  0.55000  1.0000
  Mg  Mg2240    1.0  0.90000  0.56667  0.55000  1.0000
  Mg  Mg2241    1.0  0.00000  0.60000  0.50000  1.0000
  Mg  Mg2242    1.0  0.05000  0.65000  0.50000  1.0000
  Mg  Mg2243    1.0  0.05000  0.61667  0.55000  1.0000
  Mg  Mg2244    1.0  0.00000  0.66667  0.55000  1.0000
  Mg  Mg2245    1.0  0.10000  0.60000  0.50000  1.0000
  Mg  Mg2246    1.0  0.15000  0.65000  0.50000  1.0000
  Mg  Mg2247    1.0  0.15000  0.61667  0.55000  1.0000
  Mg  Mg2248    1.0  0.10000  0.66667  0.55000  1.0000
  Mg  Mg2249    1.0  0.20000  0.60000  0.50000  1.0000
  Mg  Mg2250    1.0  0.25000  0.65000  0.50000  1.0000
  Mg  Mg2251    1.0  0.25000  0.61667  0.55000  1.0000
  Mg  Mg2252    1.0  0.20000  0.66667  0.55000  1.0000
  Mg  Mg2253    1.0  0.30000  0.60000  0.50000  1.0000
  Mg  Mg2254    1.0  0.35000  0.65000  0.50000  1.0000
  Mg  Mg2255    1.0  0.35000  0.61667  0.55000  1.0000
  Mg  Mg2256    1.0  0.30000  0.66667  0.55000  1.0000
  Mg  Mg2257    1.0  0.40000  0.60000  0.50000  1.0000
  Mg  Mg2258    1.0  0.45000  0.65000  0.50000  1.0000
  Mg  Mg2259    1.0  0.45000  0.61667  0.55000  1.0000
  Mg  Mg2260    1.0  0.40000  0.66667  0.55000  1.0000
  Mg  Mg2261    1.0  0.50000  0.60000  0.50000  1.0000
  Mg  Mg2262    1.0  0.55000  0.65000  0.50000  1.0000
  Mg  Mg2263    1.0  0.55000  0.61667  0.55000  1.0000
  Mg  Mg2264    1.0  0.50000  0.66667  0.55000  1.0000
  Mg  Mg2265    1.0  0.60000  0.60000  0.50000  1.0000
  Mg  Mg2266    1.0  0.65000  0.65000  0.50000  1.0000
  Mg  Mg2267    1.0  0.65000  0.61667  0.55000  1.0000
  Mg  Mg2268    1.0  0.60000  0.66667  0.55000  1.0000
  Mg  Mg2269    1.0  0.70000  0.60000  0.50000  1.0000
  Mg  Mg2270    1.0  0.75000  0.65000  0.50000  1.0000
  Mg  Mg2271    1.0  0.75000  0.61667  0.55000  1.0000
  Mg  Mg2272    1.0  0.70000  0.66667  0.55000  1.0000
  Mg  Mg2273    1.0  0.80000  0.60000  0.50000  1.0000
  Mg  Mg2274    1.0  0.85000  0.65000  0.50000  1.0000
  Mg  Mg2275    1.0  0.85000  0.61667  0.55000  1.0000
  Mg  Mg2276    1.0  0.80000  0.66667  0.55000  1.0000
  Mg  Mg2277    1.0  0.90000  0.60000  0.50000  1.0000
  Mg  Mg2278    1.0  0.95000  0.65000  0.50000  1.0000
  Mg  Mg2279    1.0  0.95000  0.61667  0.55000  1.0000
  Mg  Mg2280    1.0  0.90000  0.66667  0.55000  1.0000
  Mg  Mg2281    1.0  0.00000  0.70000  0.50000  1.0000
  Mg  Mg2282    1.0  0.05000  0.75000  0.50000  1.0000
  Mg  Mg2283    1.0  0.05000  0.71667  0.55000  1.0000
  Mg  Mg2284    1.0  0.00000  0.76667  0.55000  1.0000
  Mg  Mg2285    1.0  0.10000  0.70000  0.50000  1.0000
  Mg  Mg2286    1.0  0.15000  0.75000  0.50000  1.0000
  Mg  Mg2287    1.0  0.15000  0.71667  0.55000  1.0000
  Mg  Mg2288    1.0  0.10000  0.76667  0.55000  1.0000
  Mg  Mg2289    1.0  0.20000  0.70000  0.50000  1.0000
  Mg  Mg2290    1.0  0.25000  0.75000  0.50000  1.0000
  Mg  Mg2291    1.0  0.25000  0.71667  0.55000  1.0000
  Mg  Mg2292    1.0  0.20000  0.76667  0.55000  1.0000
  Mg  Mg2293    1.0  0.30000  0.70000  0.50000  1.0000
  Mg  Mg2294    1.0  0.35000  0.75000  0.50000  1.0000
  Mg  Mg2295    1.0  0.35000  0.71667  0.55000  1.0000
  Mg  Mg2296    1.0  0.30000  0.76667  0.55000  1.0000
  Mg  Mg2297    1.0  0.40000  0.70000  0.50000  1.0000
  Mg  Mg2298    1.0  0.45000  0.75000  0.50000  1.0000
  Mg  Mg2299    1.0  0.45000  0.71667  0.55000  1.0000
  Mg  Mg2300    1.0  0.40000  0.76667  0.55000  1.0000
  Mg  Mg2301    1.0  0.50000  0.70000  0.50000  1.0000
  Mg  Mg2302    1.0  0.55000  0.75000  0.50000  1.0000
  Mg  Mg2303    1.0  0.55000  0.71667  0.55000  1.0000
  Mg  Mg2304    1.0  0.50000  0.76667  0.55000  1.0000
  Mg  Mg2305    1.0  0.60000  0.70000  0.50000  1.0000
  Mg  Mg2306    1.0  0.65000  0.75000  0.50000  1.0000
  Mg  Mg2307    1.0  0.65000  0.71667  0.55000  1.0000
  Mg  Mg2308    1.0  0.60000  0.76667  0.55000  1.0000
  Mg  Mg2309    1.0  0.70000  0.70000  0.50000  1.0000
  Mg  Mg2310    1.0  0.75000  0.75000  0.50000  1.0000
  Mg  Mg2311    1.0  0.75000  0.71667  0.55000  1.0000
  Mg  Mg2312    1.0  0.70000  0.76667  0.55000  1.0000
  Mg  Mg2313    1.0  0.80000  0.70000  0.50000  1.0000
  Mg  Mg2314    1.0  0.85000  0.75000  0.50000  1.0000
  Mg  Mg2315    1.0  0.85000  0.71667  0.55000  1.0000
  Mg  Mg2316    1.0  0.80000  0.76667  0.55000  1.0000
  Mg  Mg2317    1.0  0.90000  0.70000  0.50000  1.0000
  Mg  Mg2318    1.0  0.95000  0.75000  0.50000  1.0000
  Mg  Mg2319    1.0  0.95000  0.71667  0.55000  1.0000
  Mg  Mg2320    1.0  0.90000  0.76667  0.55000  1.0000
  Mg  Mg2321    1.0  0.00000  0.80000  0.50000  1.0000
  Mg  Mg2322    1.0  0.05000  0.85000  0.50000  1.0000
  Mg  Mg2323    1.0  0.05000  0.81667  0.55000  1.0000
  Mg  Mg2324    1.0  0.00000  0.86667  0.55000  1.0000
  Mg  Mg2325    1.0  0.10000  0.80000  0.50000  1.0000
  Mg  Mg2326    1.0  0.15000  0.85000  0.50000  1.0000
  Mg  Mg2327    1.0  0.15000  0.81667  0.55000  1.0000
  Mg  Mg2328    1.0  0.10000  0.86667  0.55000  1.0000
  Mg  Mg2329    1.0  0.20000  0.80000  0.50000  1.0000
  Mg  Mg2330    1.0  0.25000  0.85000  0.50000  1.0000
  Mg  Mg2331    1.0  0.25000  0.81667  0.55000  1.0000
  Mg  Mg2332    1.0  0.20000  0.86667  0.55000  1.0000
  Mg  Mg2333    1.0  0.30000  0.80000  0.50000  1.0000
  Mg  Mg2334    1.0  0.35000  0.85000  0.50000  1.0000
  Mg  Mg2335    1.0  0.35000  0.81667  0.55000  1.0000
  Mg  Mg2336    1.0  0.30000  0.86667  0.55000  1.0000
  Mg  Mg2337    1.0  0.40000  0.80000  0.50000  1.0000
  Mg  Mg2338    1.0  0.45000  0.85000  0.50000  1.0000
  Mg  Mg2339    1.0  0.45000  0.81667  0.55000  1.0000
  Mg  Mg2340    1.0  0.40000  0.86667  0.55000  1.0000
  Mg  Mg2341    1.0  0.50000  0.80000  0.50000  1.0000
  Mg  Mg2342    1.0  0.55000  0.85000  0.50000  1.0000
  Mg  Mg2343    1.0  0.55000  0.81667  0.55000  1.0000
  Mg  Mg2344    1.0  0.50000  0.86667  0.55000  1.0000
  Mg  Mg2345    1.0  0.60000  0.80000  0.50000  1.0000
  Mg  Mg2346    1.0  0.65000  0.85000  0.50000  1.0000
  Mg  Mg2347    1.0  0.65000  0.81667  0.55000  1.0000
  Mg  Mg2348    1.0  0.60000  0.86667  0.55000  1.0000
  Mg  Mg2349    1.0  0.70000  0.80000  0.50000  1.0000
  Mg  Mg2350    1.0  0.75000  0.85000  0.50000  1.0000
  Mg  Mg2351    1.0  0.75000  0.81667  0.55000  1.0000
  Mg  Mg2352    1.0  0.70000  0.86667  0.55000  1.0000
  Mg  Mg2353    1.0  0.80000  0.80000  0.50000  1.0000
  Mg  Mg2354    1.0  0.85000  0.85000  0.50000  1.0000
  Mg  Mg2355    1.0  0.85000  0.81667  0.55000  1.0000
  Mg  Mg2356    1.0  0.80000  0.86667  0.55000  1.0000
  Mg  Mg2357    1.0  0.90000  0.80000  0.50000  1.0000
  Mg  Mg2358    1.0  0.95000  0.85000  0.50000  1.0000
  Mg  Mg2359    1.0  0.95000  0.81667  0.55000  1.0000
  Mg  Mg2360    1.0  0.90000  0.86667  0.55000  1.0000
  Mg  Mg2361    1.0  0.00000  0.90000  0.50000  1.0000
  Mg  Mg2362    1.0  0.05000  0.95000  0.50000  1.0000
  Mg  Mg2363    1.0  0.05000  0.91667  0.55000  1.0000
  Mg  Mg2364    1.0  0.00000  0.96667  0.55000  1.0000
  Mg  Mg2365    1.0  0.10000  0.90000  0.50000  1.0000
  Mg  Mg2366    1.0  0.15000  0.95000  0.50000  1.0000
  Mg  Mg2367    1.0  0.15000  0.91667  0.55000  1.0000
  Mg  Mg2368    1.0  0.10000  0.96667  0.55000  1.0000
  Mg  Mg2369    1.0  0.20000  0.90000  0.50000  1.0000
  Mg  Mg2370    1.0  0.25000  0.95000  0.50000  1.0000
  Mg  Mg2371    1.0  0.25000  0.91667  0.55000  1.0000
  Mg  Mg2372    1.0  0.20000  0.96667  0.55000  1.0000
  Mg  Mg2373    1.0  0.30000  0.90000  0.50000  1.0000
  Mg  Mg2374    1.0  0.35000  0.95000  0.50000  1.0000
  Mg  Mg2375    1.0  0.35000  0.91667  0.55000  1.0000
  Mg  Mg2376    1.0  0.30000  0.96667  0.55000  1.0000
  Mg  Mg2377    1.0  0.40000  0.90000  0.50000  1.0000
  Mg  Mg2378    1.0  0.45000  0.95000  0.50000  1.0000
  Mg  Mg2379    1.0  0.45000  0.91667  0.55000  1.0000
  Mg  Mg2380    1.0  0.40000  0.96667  0.55000  1.0000
  Mg  Mg2381    1.0  0.50000  0.90000  0.50000  1.0000
  Mg  Mg2382    1.0  0.55000  0.95000  0.50000  1.0000
  Mg  Mg2383    1.0  0.55000  0.91667  0.55000  1.0000
  Mg  Mg2384    1.0  0.50000  0.96667  0.55000  1.0000
  Mg  Mg2385    1.0  0.60000  0.90000  0.50000  1.0000
  Mg  Mg2386    1.0  0.65000  0.95000  0.50000  1.0000
  Mg  Mg2387    1.0  0.65000  0.91667  0.55000  1.0000
  Mg  Mg2388    1.0  0.60000  0.96667  0.55000  1.0000
  Mg  Mg2389    1.0  0.70000  0.90000  0.50000  1.0000
  Mg  Mg2390    1.0  0.75000  0.95000  0.50000  1.0000
  Mg  Mg2391    1.0  0.75000  0.91667  0.55000  1.0000
  Mg  Mg2392    1.0  0.70000  0.96667  0.55000  1.0000
  Mg  Mg2393    1.0  0.80000  0.90000  0.50000  1.0000
  Mg  Mg2394    1.0  0.85000  0.95000  0.50000  1.0000
  Mg  Mg2395    1.0  0.85000  0.91667  0.55000  1.0000
  Mg  Mg2396    1.0  0.80000  0.96667  0.55000  1.0000
  Mg  Mg2397    1.0  0.90000  0.90000  0.50000  1.0000
  Mg  Mg2398    1.0  0.95000  0.95000  0.50000  1.0000
  Mg  Mg2399    1.0  0.95000  0.91667  0.55000  1.0000
  Mg  Mg2400    1.0  0.90000  0.96667  0.55000  1.0000
  Mg  Mg2401    1.0  0.00000  0.00000  0.60000  1.0000
  Mg  Mg2402    1.0  0.05000  0.05000  0.60000  1.0000
  Mg  Mg2403    1.0  0.05000  0.01667  0.65000  1.0000
  Mg  Mg2404    1.0  0.00000  0.06667  0.65000  1.0000
  Mg  Mg2405    1.0  0.10000  0.00000  0.60000  1.0000
  Mg  Mg2406    1.0  0.15000  0.05000  0.60000  1.0000
  Mg  Mg2407    1.0  0.15000  0.01667  0.65000  1.0000
  Mg  Mg2408    1.0  0.10000  0.06667  0.65000  1.0000
  Mg  Mg2409    1.0  0.20000  0.00000  0.60000  1.0000
  Mg  Mg2410    1.0  0.25000  0.05000  0.60000  1.0000
  Mg  Mg2411    1.0  0.25000  0.01667  0.65000  1.0000
  Mg  Mg2412    1.0  0.20000  0.06667  0.65000  1.0000
  Mg  Mg2413    1.0  0.30000  0.00000  0.60000  1.0000
  Mg  Mg2414    1.0  0.35000  0.05000  0.60000  1.0000
  Mg  Mg2415    1.0  0.35000  0.01667  0.65000  1.0000
  Mg  Mg2416    1.0  0.30000  0.06667  0.65000  1.0000
  Mg  Mg2417    1.0  0.40000  0.00000  0.60000  1.0000
  Mg  Mg2418    1.0  0.45000  0.05000  0.60000  1.0000
  Mg  Mg2419    1.0  0.45000  0.01667  0.65000  1.0000
  Mg  Mg2420    1.0  0.40000  0.06667  0.65000  1.0000
  Mg  Mg2421    1.0  0.50000  0.00000  0.60000  1.0000
  Mg  Mg2422    1.0  0.55000  0.05000  0.60000  1.0000
  Mg  Mg2423    1.0  0.55000  0.01667  0.65000  1.0000
  Mg  Mg2424    1.0  0.50000  0.06667  0.65000  1.0000
  Mg  Mg2425    1.0  0.60000  0.00000  0.60000  1.0000
  Mg  Mg2426    1.0  0.65000  0.05000  0.60000  1.0000
  Mg  Mg2427    1.0  0.65000  0.01667  0.65000  1.0000
  Mg  Mg2428    1.0  0.60000  0.06667  0.65000  1.0000
  Mg  Mg2429    1.0  0.70000  0.00000  0.60000  1.0000
  Mg  Mg2430    1.0  0.75000  0.05000  0.60000  1.0000
  Mg  Mg2431    1.0  0.75000  0.01667  0.65000  1.0000
  Mg  Mg2432    1.0  0.70000  0.06667  0.65000  1.0000
  Mg  Mg2433    1.0  0.80000  0.00000  0.60000  1.0000
  Mg  Mg2434    1.0  0.85000  0.05000  0.60000  1.0000
  Mg  Mg2435    1.0  0.85000  0.01667  0.65000  1.0000
  Mg  Mg2436    1.0  0.80000  0.06667  0.65000  1.0000
  Mg  Mg2437    1.0  0.90000  0.00000  0.60000  1.0000
  Mg  Mg2438    1.0  0.95000  0.05000  0.60000  1.0000
  Mg  Mg2439    1.0  0.95000  0.01667  0.65000  1.0000
  Mg  Mg2440    1.0  0.90000  0.06667  0.65000  1.0000
  Mg  Mg2441    1.0  0.00000  0.10000  0.60000  1.0000
  Mg  Mg2442    1.0  0.05000  0.15000  0.60000  1.0000
  Mg  Mg2443    1.0  0.05000  0.11667  0.65000  1.0000
  Mg  Mg2444    1.0  0.00000  0.16667  0.65000  1.0000
  Mg  Mg2445    1.0  0.10000  0.10000  0.60000  1.0000
  Mg  Mg2446    1.0  0.15000  0.15000  0.60000  1.0000
  Mg  Mg2447    1.0  0.15000  0.11667  0.65000  1.0000
  Mg  Mg2448    1.0  0.10000  0.16667  0.65000  1.0000
  Mg  Mg2449    1.0  0.20000  0.10000  0.60000  1.0000
  Mg  Mg2450    1.0  0.25000  0.15000  0.60000  1.0000
  Mg  Mg2451    1.0  0.25000  0.11667  0.65000  1.0000
  Mg  Mg2452    1.0  0.20000  0.16667  0.65000  1.0000
  Mg  Mg2453    1.0  0.30000  0.10000  0.60000  1.0000
  Mg  Mg2454    1.0  0.35000  0.15000  0.60000  1.0000
  Mg  Mg2455    1.0  0.35000  0.11667  0.65000  1.0000
  Mg  Mg2456    1.0  0.30000  0.16667  0.65000  1.0000
  Mg  Mg2457    1.0  0.40000  0.10000  0.60000  1.0000
  Mg  Mg2458    1.0  0.45000  0.15000  0.60000  1.0000
  Mg  Mg2459    1.0  0.45000  0.11667  0.65000  1.0000
  Mg  Mg2460    1.0  0.40000  0.16667  0.65000  1.0000
  Mg  Mg2461    1.0  0.50000  0.10000  0.60000  1.0000
  Mg  Mg2462    1.0  0.55000  0.15000  0.60000  1.0000
  Mg  Mg2463    1.0  0.55000  0.11667  0.65000  1.0000
  Mg  Mg2464    1.0  0.50000  0.16667  0.65000  1.0000
  Mg  Mg2465    1.0  0.60000  0.10000  0.60000  1.0000
  Mg  Mg2466    1.0  0.65000  0.15000  0.60000  1.0000
  Mg  Mg2467    1.0  0.65000  0.11667  0.65000  1.0000
  Mg  Mg2468    1.0  0.60000  0.16667  0.65000  1.0000
  Mg  Mg2469    1.0  0.70000  0.10000  0.60000  1.0000
  Mg  Mg2470    1.0  0.75000  0.15000  0.60000  1.0000
  Mg  Mg2471    1.0  0.75000  0.11667  0.65000  1.0000
  Mg  Mg2472    1.0  0.70000  0.16667  0.65000  1.0000
  Mg  Mg2473    1.0  0.80000  0.10000  0.60000  1.0000
  Mg  Mg2474    1.0  0.85000  0.15000  0.60000  1.0000
  Mg  Mg2475    1.0  0.85000  0.11667  0.65000  1.0000
  Mg  Mg2476    1.0  0.80000  0.16667  0.65000  1.0000
  Mg  Mg2477    1.0  0.90000  0.10000  0.60000  1.0000
  Mg  Mg2478    1.0  0.95000  0.15000  0.60000  1.0000
  Mg  Mg2479    1.0  0.95000  0.11667  0.65000  1.0000
  Mg  Mg2480    1.0  0.90000  0.16667  0.65000  1.0000
  Mg  Mg2481    1.0  0.00000  0.20000  0.60000  1.0000
  Mg  Mg2482    1.0  0.05000  0.25000  0.60000  1.0000
  Mg  Mg2483    1.0  0.05000  0.21667  0.65000  1.0000
  Mg  Mg2484    1.0  0.00000  0.26667  0.65000  1.0000
  Mg  Mg2485    1.0  0.10000  0.20000  0.60000  1.0000
  Mg  Mg2486    1.0  0.15000  0.25000  0.60000  1.0000
  Mg  Mg2487    1.0  0.15000  0.21667  0.65000  1.0000
  Mg  Mg2488    1.0  0.10000  0.26667  0.65000  1.0000
  Mg  Mg2489    1.0  0.20000  0.20000  0.60000  1.0000
  Mg  Mg2490    1.0  0.25000  0.25000  0.60000  1.0000
  Mg  Mg2491    1.0  0.25000  0.21667  0.65000  1.0000
  Mg  Mg2492    1.0  0.20000  0.26667  0.65000  1.0000
  Mg  Mg2493    1.0  0.30000  0.20000  0.60000  1.0000
  Mg  Mg2494    1.0  0.35000  0.25000  0.60000  1.0000
  Mg  Mg2495    1.0  0.35000  0.21667  0.65000  1.0000
  Mg  Mg2496    1.0  0.30000  0.26667  0.65000  1.0000
  Mg  Mg2497    1.0  0.40000  0.20000  0.60000  1.0000
  Mg  Mg2498    1.0  0.45000  0.25000  0.60000  1.0000
  Mg  Mg2499    1.0  0.45000  0.21667  0.65000  1.0000
  Mg  Mg2500    1.0  0.40000  0.26667  0.65000  1.0000
  Mg  Mg2501    1.0  0.50000  0.20000  0.60000  1.0000
  Mg  Mg2502    1.0  0.55000  0.25000  0.60000  1.0000
  Mg  Mg2503    1.0  0.55000  0.21667  0.65000  1.0000
  Mg  Mg2504    1.0  0.50000  0.26667  0.65000  1.0000
  Mg  Mg2505    1.0  0.60000  0.20000  0.60000  1.0000
  Mg  Mg2506    1.0  0.65000  0.25000  0.60000  1.0000
  Mg  Mg2507    1.0  0.65000  0.21667  0.65000  1.0000
  Mg  Mg2508    1.0  0.60000  0.26667  0.65000  1.0000
  Mg  Mg2509    1.0  0.70000  0.20000  0.60000  1.0000
  Mg  Mg2510    1.0  0.75000  0.25000  0.60000  1.0000
  Mg  Mg2511    1.0  0.75000  0.21667  0.65000  1.0000
  Mg  Mg2512    1.0  0.70000  0.26667  0.65000  1.0000
  Mg  Mg2513    1.0  0.80000  0.20000  0.60000  1.0000
  Mg  Mg2514    1.0  0.85000  0.25000  0.60000  1.0000
  Mg  Mg2515    1.0  0.85000  0.21667  0.65000  1.0000
  Mg  Mg2516    1.0  0.80000  0.26667  0.65000  1.0000
  Mg  Mg2517    1.0  0.90000  0.20000  0.60000  1.0000
  Mg  Mg2518    1.0  0.95000  0.25000  0.60000  1.0000
  Mg  Mg2519    1.0  0.95000  0.21667  0.65000  1.0000
  Mg  Mg2520    1.0  0.90000  0.26667  0.65000  1.0000
  Mg  Mg2521    1.0  0.00000  0.30000  0.60000  1.0000
  Mg  Mg2522    1.0  0.05000  0.35000  0.60000  1.0000
  Mg  Mg2523    1.0  0.05000  0.31667  0.65000  1.0000
  Mg  Mg2524    1.0  0.00000  0.36667  0.65000  1.0000
  Mg  Mg2525    1.0  0.10000  0.30000  0.60000  1.0000
  Mg  Mg2526    1.0  0.15000  0.35000  0.60000  1.0000
  Mg  Mg2527    1.0  0.15000  0.31667  0.65000  1.0000
  Mg  Mg2528    1.0  0.10000  0.36667  0.65000  1.0000
  Mg  Mg2529    1.0  0.20000  0.30000  0.60000  1.0000
  Mg  Mg2530    1.0  0.25000  0.35000  0.60000  1.0000
  Mg  Mg2531    1.0  0.25000  0.31667  0.65000  1.0000
  Mg  Mg2532    1.0  0.20000  0.36667  0.65000  1.0000
  Mg  Mg2533    1.0  0.30000  0.30000  0.60000  1.0000
  Mg  Mg2534    1.0  0.35000  0.35000  0.60000  1.0000
  Mg  Mg2535    1.0  0.35000  0.31667  0.65000  1.0000
  Mg  Mg2536    1.0  0.30000  0.36667  0.65000  1.0000
  Mg  Mg2537    1.0  0.40000  0.30000  0.60000  1.0000
  Mg  Mg2538    1.0  0.45000  0.35000  0.60000  1.0000
  Mg  Mg2539    1.0  0.45000  0.31667  0.65000  1.0000
  Mg  Mg2540    1.0  0.40000  0.36667  0.65000  1.0000
  Mg  Mg2541    1.0  0.50000  0.30000  0.60000  1.0000
  Mg  Mg2542    1.0  0.55000  0.35000  0.60000  1.0000
  Mg  Mg2543    1.0  0.55000  0.31667  0.65000  1.0000
  Mg  Mg2544    1.0  0.50000  0.36667  0.65000  1.0000
  Mg  Mg2545    1.0  0.60000  0.30000  0.60000  1.0000
  Mg  Mg2546    1.0  0.65000  0.35000  0.60000  1.0000
  Mg  Mg2547    1.0  0.65000  0.31667  0.65000  1.0000
  Mg  Mg2548    1.0  0.60000  0.36667  0.65000  1.0000
  Mg  Mg2549    1.0  0.70000  0.30000  0.60000  1.0000
  Mg  Mg2550    1.0  0.75000  0.35000  0.60000  1.0000
  Mg  Mg2551    1.0  0.75000  0.31667  0.65000  1.0000
  Mg  Mg2552    1.0  0.70000  0.36667  0.65000  1.0000
  Mg  Mg2553    1.0  0.80000  0.30000  0.60000  1.0000
  Mg  Mg2554    1.0  0.85000  0.35000  0.60000  1.0000
  Mg  Mg2555    1.0  0.85000  0.31667  0.65000  1.0000
  Mg  Mg2556    1.0  0.80000  0.36667  0.65000  1.0000
  Mg  Mg2557    1.0  0.90000  0.30000  0.60000  1.0000
  Mg  Mg2558    1.0  0.95000  0.35000  0.60000  1.0000
  Mg  Mg2559    1.0  0.95000  0.31667  0.65000  1.0000
  Mg  Mg2560    1.0  0.90000  0.36667  0.65000  1.0000
  Mg  Mg2561    1.0  0.00000  0.40000  0.60000  1.0000
  Mg  Mg2562    1.0  0.05000  0.45000  0.60000  1.0000
  Mg  Mg2563    1.0  0.05000  0.41667  0.65000  1.0000
  Mg  Mg2564    1.0  0.00000  0.46667  0.65000  1.0000
  Mg  Mg2565    1.0  0.10000  0.40000  0.60000  1.0000
  Mg  Mg2566    1.0  0.15000  0.45000  0.60000  1.0000
  Mg  Mg2567    1.0  0.15000  0.41667  0.65000  1.0000
  Mg  Mg2568    1.0  0.10000  0.46667  0.65000  1.0000
  Mg  Mg2569    1.0  0.20000  0.40000  0.60000  1.0000
  Mg  Mg2570    1.0  0.25000  0.45000  0.60000  1.0000
  Mg  Mg2571    1.0  0.25000  0.41667  0.65000  1.0000
  Mg  Mg2572    1.0  0.20000  0.46667  0.65000  1.0000
  Mg  Mg2573    1.0  0.30000  0.40000  0.60000  1.0000
  Mg  Mg2574    1.0  0.35000  0.45000  0.60000  1.0000
  Mg  Mg2575    1.0  0.35000  0.41667  0.65000  1.0000
  Mg  Mg2576    1.0  0.30000  0.46667  0.65000  1.0000
  Mg  Mg2577    1.0  0.40000  0.40000  0.60000  1.0000
  Mg  Mg2578    1.0  0.45000  0.45000  0.60000  1.0000
  Mg  Mg2579    1.0  0.45000  0.41667  0.65000  1.0000
  Mg  Mg2580    1.0  0.40000  0.46667  0.65000  1.0000
  Mg  Mg2581    1.0  0.50000  0.40000  0.60000  1.0000
  Mg  Mg2582    1.0  0.55000  0.45000  0.60000  1.0000
  Mg  Mg2583    1.0  0.55000  0.41667  0.65000  1.0000
  Mg  Mg2584    1.0  0.50000  0.46667  0.65000  1.0000
  Mg  Mg2585    1.0  0.60000  0.40000  0.60000  1.0000
  Mg  Mg2586    1.0  0.65000  0.45000  0.60000  1.0000
  Mg  Mg2587    1.0  0.65000  0.41667  0.65000  1.0000
  Mg  Mg2588    1.0  0.60000  0.46667  0.65000  1.0000
  Mg  Mg2589    1.0  0.70000  0.40000  0.60000  1.0000
  Mg  Mg2590    1.0  0.75000  0.45000  0.60000  1.0000
  Mg  Mg2591    1.0  0.75000  0.41667  0.65000  1.0000
  Mg  Mg2592    1.0  0.70000  0.46667  0.65000  1.0000
  Mg  Mg2593    1.0  0.80000  0.40000  0.60000  1.0000
  Mg  Mg2594    1.0  0.85000  0.45000  0.60000  1.0000
  Mg  Mg2595    1.0  0.85000  0.41667  0.65000  1.0000
  Mg  Mg2596    1.0  0.80000  0.46667  0.65000  1.0000
  Mg  Mg2597    1.0  0.90000  0.40000  0.60000  1.0000
  Mg  Mg2598    1.0  0.95000  0.45000  0.60000  1.0000
  Mg  Mg2599    1.0  0.95000  0.41667  0.65000  1.0000
  Mg  Mg2600    1.0  0.90000  0.46667  0.65000  1.0000
  Mg  Mg2601    1.0  0.00000  0.50000  0.60000  1.0000
  Mg  Mg2602    1.0  0.05000  0.55000  0.60000  1.0000
  Mg  Mg2603    1.0  0.05000  0.51667  0.65000  1.0000
  Mg  Mg2604    1.0  0.00000  0.56667  0.65000  1.0000
  Mg  Mg2605    1.0  0.10000  0.50000  0.60000  1.0000
  Mg  Mg2606    1.0  0.15000  0.55000  0.60000  1.0000
  Mg  Mg2607    1.0  0.15000  0.51667  0.65000  1.0000
  Mg  Mg2608    1.0  0.10000  0.56667  0.65000  1.0000
  Mg  Mg2609    1.0  0.20000  0.50000  0.60000  1.0000
  Mg  Mg2610    1.0  0.25000  0.55000  0.60000  1.0000
  Mg  Mg2611    1.0  0.25000  0.51667  0.65000  1.0000
  Mg  Mg2612    1.0  0.20000  0.56667  0.65000  1.0000
  Mg  Mg2613    1.0  0.30000  0.50000  0.60000  1.0000
  Mg  Mg2614    1.0  0.35000  0.55000  0.60000  1.0000
  Mg  Mg2615    1.0  0.35000  0.51667  0.65000  1.0000
  Mg  Mg2616    1.0  0.30000  0.56667  0.65000  1.0000
  Mg  Mg2617    1.0  0.40000  0.50000  0.60000  1.0000
  Mg  Mg2618    1.0  0.45000  0.55000  0.60000  1.0000
  Mg  Mg2619    1.0  0.45000  0.51667  0.65000  1.0000
  Mg  Mg2620    1.0  0.40000  0.56667  0.65000  1.0000
  Mg  Mg2621    1.0  0.50000  0.50000  0.60000  1.0000
  Mg  Mg2622    1.0  0.55000  0.55000  0.60000  1.0000
  Mg  Mg2623    1.0  0.55000  0.51667  0.65000  1.0000
  Mg  Mg2624    1.0  0.50000  0.56667  0.65000  1.0000
  Mg  Mg2625    1.0  0.60000  0.50000  0.60000  1.0000
  Mg  Mg2626    1.0  0.65000  0.55000  0.60000  1.0000
  Mg  Mg2627    1.0  0.65000  0.51667  0.65000  1.0000
  Mg  Mg2628    1.0  0.60000  0.56667  0.65000  1.0000
  Mg  Mg2629    1.0  0.70000  0.50000  0.60000  1.0000
  Mg  Mg2630    1.0  0.75000  0.55000  0.60000  1.0000
  Mg  Mg2631    1.0  0.75000  0.51667  0.65000  1.0000
  Mg  Mg2632    1.0  0.70000  0.56667  0.65000  1.0000
  Mg  Mg2633    1.0  0.80000  0.50000  0.60000  1.0000
  Mg  Mg2634    1.0  0.85000  0.55000  0.60000  1.0000
  Mg  Mg2635    1.0  0.85000  0.51667  0.65000  1.0000
  Mg  Mg2636    1.0  0.80000  0.56667  0.65000  1.0000
  Mg  Mg2637    1.0  0.90000  0.50000  0.60000  1.0000
  Mg  Mg2638    1.0  0.95000  0.55000  0.60000  1.0000
  Mg  Mg2639    1.0  0.95000  0.51667  0.65000  1.0000
  Mg  Mg2640    1.0  0.90000  0.56667  0.65000  1.0000
  Mg  Mg2641    1.0  0.00000  0.60000  0.60000  1.0000
  Mg  Mg2642    1.0  0.05000  0.65000  0.60000  1.0000
  Mg  Mg2643    1.0  0.05000  0.61667  0.65000  1.0000
  Mg  Mg2644    1.0  0.00000  0.66667  0.65000  1.0000
  Mg  Mg2645    1.0  0.10000  0.60000  0.60000  1.0000
  Mg  Mg2646    1.0  0.15000  0.65000  0.60000  1.0000
  Mg  Mg2647    1.0  0.15000  0.61667  0.65000  1.0000
  Mg  Mg2648    1.0  0.10000  0.66667  0.65000  1.0000
  Mg  Mg2649    1.0  0.20000  0.60000  0.60000  1.0000
  Mg  Mg2650    1.0  0.25000  0.65000  0.60000  1.0000
  Mg  Mg2651    1.0  0.25000  0.61667  0.65000  1.0000
  Mg  Mg2652    1.0  0.20000  0.66667  0.65000  1.0000
  Mg  Mg2653    1.0  0.30000  0.60000  0.60000  1.0000
  Mg  Mg2654    1.0  0.35000  0.65000  0.60000  1.0000
  Mg  Mg2655    1.0  0.35000  0.61667  0.65000  1.0000
  Mg  Mg2656    1.0  0.30000  0.66667  0.65000  1.0000
  Mg  Mg2657    1.0  0.40000  0.60000  0.60000  1.0000
  Mg  Mg2658    1.0  0.45000  0.65000  0.60000  1.0000
  Mg  Mg2659    1.0  0.45000  0.61667  0.65000  1.0000
  Mg  Mg2660    1.0  0.40000  0.66667  0.65000  1.0000
  Mg  Mg2661    1.0  0.50000  0.60000  0.60000  1.0000
  Mg  Mg2662    1.0  0.55000  0.65000  0.60000  1.0000
  Mg  Mg2663    1.0  0.55000  0.61667  0.65000  1.0000
  Mg  Mg2664    1.0  0.50000  0.66667  0.65000  1.0000
  Mg  Mg2665    1.0  0.60000  0.60000  0.60000  1.0000
  Mg  Mg2666    1.0  0.65000  0.65000  0.60000  1.0000
  Mg  Mg2667    1.0  0.65000  0.61667  0.65000  1.0000
  Mg  Mg2668    1.0  0.60000  0.66667  0.65000  1.0000
  Mg  Mg2669    1.0  0.70000  0.60000  0.60000  1.0000
  Mg  Mg2670    1.0  0.75000  0.65000  0.60000  1.0000
  Mg  Mg2671    1.0  0.75000  0.61667  0.65000  1.0000
  Mg  Mg2672    1.0  0.70000  0.66667  0.65000  1.0000
  Mg  Mg2673    1.0  0.80000  0.60000  0.60000  1.0000
  Mg  Mg2674    1.0  0.85000  0.65000  0.60000  1.0000
  Mg  Mg2675    1.0  0.85000  0.61667  0.65000  1.0000
  Mg  Mg2676    1.0  0.80000  0.66667  0.65000  1.0000
  Mg  Mg2677    1.0  0.90000  0.60000  0.60000  1.0000
  Mg  Mg2678    1.0  0.95000  0.65000  0.60000  1.0000
  Mg  Mg2679    1.0  0.95000  0.61667  0.65000  1.0000
  Mg  Mg2680    1.0  0.90000  0.66667  0.65000  1.0000
  Mg  Mg2681    1.0  0.00000  0.70000  0.60000  1.0000
  Mg  Mg2682    1.0  0.05000  0.75000  0.60000  1.0000
  Mg  Mg2683    1.0  0.05000  0.71667  0.65000  1.0000
  Mg  Mg2684    1.0  0.00000  0.76667  0.65000  1.0000
  Mg  Mg2685    1.0  0.10000  0.70000  0.60000  1.0000
  Mg  Mg2686    1.0  0.15000  0.75000  0.60000  1.0000
  Mg  Mg2687    1.0  0.15000  0.71667  0.65000  1.0000
  Mg  Mg2688    1.0  0.10000  0.76667  0.65000  1.0000
  Mg  Mg2689    1.0  0.20000  0.70000  0.60000  1.0000
  Mg  Mg2690    1.0  0.25000  0.75000  0.60000  1.0000
  Mg  Mg2691    1.0  0.25000  0.71667  0.65000  1.0000
  Mg  Mg2692    1.0  0.20000  0.76667  0.65000  1.0000
  Mg  Mg2693    1.0  0.30000  0.70000  0.60000  1.0000
  Mg  Mg2694    1.0  0.35000  0.75000  0.60000  1.0000
  Mg  Mg2695    1.0  0.35000  0.71667  0.65000  1.0000
  Mg  Mg2696    1.0  0.30000  0.76667  0.65000  1.0000
  Mg  Mg2697    1.0  0.40000  0.70000  0.60000  1.0000
  Mg  Mg2698    1.0  0.45000  0.75000  0.60000  1.0000
  Mg  Mg2699    1.0  0.45000  0.71667  0.65000  1.0000
  Mg  Mg2700    1.0  0.40000  0.76667  0.65000  1.0000
  Mg  Mg2701    1.0  0.50000  0.70000  0.60000  1.0000
  Mg  Mg2702    1.0  0.55000  0.75000  0.60000  1.0000
  Mg  Mg2703    1.0  0.55000  0.71667  0.65000  1.0000
  Mg  Mg2704    1.0  0.50000  0.76667  0.65000  1.0000
  Mg  Mg2705    1.0  0.60000  0.70000  0.60000  1.0000
  Mg  Mg2706    1.0  0.65000  0.75000  0.60000  1.0000
  Mg  Mg2707    1.0  0.65000  0.71667  0.65000  1.0000
  Mg  Mg2708    1.0  0.60000  0.76667  0.65000  1.0000
  Mg  Mg2709    1.0  0.70000  0.70000  0.60000  1.0000
  Mg  Mg2710    1.0  0.75000  0.75000  0.60000  1.0000
  Mg  Mg2711    1.0  0.75000  0.71667  0.65000  1.0000
  Mg  Mg2712    1.0  0.70000  0.76667  0.65000  1.0000
  Mg  Mg2713    1.0  0.80000  0.70000  0.60000  1.0000
  Mg  Mg2714    1.0  0.85000  0.75000  0.60000  1.0000
  Mg  Mg2715    1.0  0.85000  0.71667  0.65000  1.0000
  Mg  Mg2716    1.0  0.80000  0.76667  0.65000  1.0000
  Mg  Mg2717    1.0  0.90000  0.70000  0.60000  1.0000
  Mg  Mg2718    1.0  0.95000  0.75000  0.60000  1.0000
  Mg  Mg2719    1.0  0.95000  0.71667  0.65000  1.0000
  Mg  Mg2720    1.0  0.90000  0.76667  0.65000  1.0000
  Mg  Mg2721    1.0  0.00000  0.80000  0.60000  1.0000
  Mg  Mg2722    1.0  0.05000  0.85000  0.60000  1.0000
  Mg  Mg2723    1.0  0.05000  0.81667  0.65000  1.0000
  Mg  Mg2724    1.0  0.00000  0.86667  0.65000  1.0000
  Mg  Mg2725    1.0  0.10000  0.80000  0.60000  1.0000
  Mg  Mg2726    1.0  0.15000  0.85000  0.60000  1.0000
  Mg  Mg2727    1.0  0.15000  0.81667  0.65000  1.0000
  Mg  Mg2728    1.0  0.10000  0.86667  0.65000  1.0000
  Mg  Mg2729    1.0  0.20000  0.80000  0.60000  1.0000
  Mg  Mg2730    1.0  0.25000  0.85000  0.60000  1.0000
  Mg  Mg2731    1.0  0.25000  0.81667  0.65000  1.0000
  Mg  Mg2732    1.0  0.20000  0.86667  0.65000  1.0000
  Mg  Mg2733    1.0  0.30000  0.80000  0.60000  1.0000
  Mg  Mg2734    1.0  0.35000  0.85000  0.60000  1.0000
  Mg  Mg2735    1.0  0.35000  0.81667  0.65000  1.0000
  Mg  Mg2736    1.0  0.30000  0.86667  0.65000  1.0000
  Mg  Mg2737    1.0  0.40000  0.80000  0.60000  1.0000
  Mg  Mg2738    1.0  0.45000  0.85000  0.60000  1.0000
  Mg  Mg2739    1.0  0.45000  0.81667  0.65000  1.0000
  Mg  Mg2740    1.0  0.40000  0.86667  0.65000  1.0000
  Mg  Mg2741    1.0  0.50000  0.80000  0.60000  1.0000
  Mg  Mg2742    1.0  0.55000  0.85000  0.60000  1.0000
  Mg  Mg2743    1.0  0.55000  0.81667  0.65000  1.0000
  Mg  Mg2744    1.0  0.50000  0.86667  0.65000  1.0000
  Mg  Mg2745    1.0  0.60000  0.80000  0.60000  1.0000
  Mg  Mg2746    1.0  0.65000  0.85000  0.60000  1.0000
  Mg  Mg2747    1.0  0.65000  0.81667  0.65000  1.0000
  Mg  Mg2748    1.0  0.60000  0.86667  0.65000  1.0000
  Mg  Mg2749    1.0  0.70000  0.80000  0.60000  1.0000
  Mg  Mg2750    1.0  0.75000  0.85000  0.60000  1.0000
  Mg  Mg2751    1.0  0.75000  0.81667  0.65000  1.0000
  Mg  Mg2752    1.0  0.70000  0.86667  0.65000  1.0000
  Mg  Mg2753    1.0  0.80000  0.80000  0.60000  1.0000
  Mg  Mg2754    1.0  0.85000  0.85000  0.60000  1.0000
  Mg  Mg2755    1.0  0.85000  0.81667  0.65000  1.0000
  Mg  Mg2756    1.0  0.80000  0.86667  0.65000  1.0000
  Mg  Mg2757    1.0  0.90000  0.80000  0.60000  1.0000
  Mg  Mg2758    1.0  0.95000  0.85000  0.60000  1.0000
  Mg  Mg2759    1.0  0.95000  0.81667  0.65000  1.0000
  Mg  Mg2760    1.0  0.90000  0.86667  0.65000  1.0000
  Mg  Mg2761    1.0  0.00000  0.90000  0.60000  1.0000
  Mg  Mg2762    1.0  0.05000  0.95000  0.60000  1.0000
  Mg  Mg2763    1.0  0.05000  0.91667  0.65000  1.0000
  Mg  Mg2764    1.0  0.00000  0.96667  0.65000  1.0000
  Mg  Mg2765    1.0  0.10000  0.90000  0.60000  1.0000
  Mg  Mg2766    1.0  0.15000  0.95000  0.60000  1.0000
  Mg  Mg2767    1.0  0.15000  0.91667  0.65000  1.0000
  Mg  Mg2768    1.0  0.10000  0.96667  0.65000  1.0000
  Mg  Mg2769    1.0  0.20000  0.90000  0.60000  1.0000
  Mg  Mg2770    1.0  0.25000  0.95000  0.60000  1.0000
  Mg  Mg2771    1.0  0.25000  0.91667  0.65000  1.0000
  Mg  Mg2772    1.0  0.20000  0.96667  0.65000  1.0000
  Mg  Mg2773    1.0  0.30000  0.90000  0.60000  1.0000
  Mg  Mg2774    1.0  0.35000  0.95000  0.60000  1.0000
  Mg  Mg2775    1.0  0.35000  0.91667  0.65000  1.0000
  Mg  Mg2776    1.0  0.30000  0.96667  0.65000  1.0000
  Mg  Mg2777    1.0  0.40000  0.90000  0.60000  1.0000
  Mg  Mg2778    1.0  0.45000  0.95000  0.60000  1.0000
  Mg  Mg2779    1.0  0.45000  0.91667  0.65000  1.0000
  Mg  Mg2780    1.0  0.40000  0.96667  0.65000  1.0000
  Mg  Mg2781    1.0  0.50000  0.90000  0.60000  1.0000
  Mg  Mg2782    1.0  0.55000  0.95000  0.60000  1.0000
  Mg  Mg2783    1.0  0.55000  0.91667  0.65000  1.0000
  Mg  Mg2784    1.0  0.50000  0.96667  0.65000  1.0000
  Mg  Mg2785    1.0  0.60000  0.90000  0.60000  1.0000
  Mg  Mg2786    1.0  0.65000  0.95000  0.60000  1.0000
  Mg  Mg2787    1.0  0.65000  0.91667  0.65000  1.0000
  Mg  Mg2788    1.0  0.60000  0.96667  0.65000  1.0000
  Mg  Mg2789    1.0  0.70000  0.90000  0.60000  1.0000
  Mg  Mg2790    1.0  0.75000  0.95000  0.60000  1.0000
  Mg  Mg2791    1.0  0.75000  0.91667  0.65000  1.0000
  Mg  Mg2792    1.0  0.70000  0.96667  0.65000  1.0000
  Mg  Mg2793    1.0  0.80000  0.90000  0.60000  1.0000
  Mg  Mg2794    1.0  0.85000  0.95000  0.60000  1.0000
  Mg  Mg2795    1.0  0.85000  0.91667  0.65000  1.0000
  Mg  Mg2796    1.0  0.80000  0.96667  0.65000  1.0000
  Mg  Mg2797    1.0  0.90000  0.90000  0.60000  1.0000
  Mg  Mg2798    1.0  0.95000  0.95000  0.60000  1.0000
  Mg  Mg2799    1.0  0.95000  0.91667  0.65000  1.0000
  Mg  Mg2800    1.0  0.90000  0.96667  0.65000  1.0000
  Mg  Mg2801    1.0  0.00000  0.00000  0.70000  1.0000
  Mg  Mg2802    1.0  0.05000  0.05000  0.70000  1.0000
  Mg  Mg2803    1.0  0.05000  0.01667  0.75000  1.0000
  Mg  Mg2804    1.0  0.00000  0.06667  0.75000  1.0000
  Mg  Mg2805    1.0  0.10000  0.00000  0.70000  1.0000
  Mg  Mg2806    1.0  0.15000  0.05000  0.70000  1.0000
  Mg  Mg2807    1.0  0.15000  0.01667  0.75000  1.0000
  Mg  Mg2808    1.0  0.10000  0.06667  0.75000  1.0000
  Mg  Mg2809    1.0  0.20000  0.00000  0.70000  1.0000
  Mg  Mg2810    1.0  0.25000  0.05000  0.70000  1.0000
  Mg  Mg2811    1.0  0.25000  0.01667  0.75000  1.0000
  Mg  Mg2812    1.0  0.20000  0.06667  0.75000  1.0000
  Mg  Mg2813    1.0  0.30000  0.00000  0.70000  1.0000
  Mg  Mg2814    1.0  0.35000  0.05000  0.70000  1.0000
  Mg  Mg2815    1.0  0.35000  0.01667  0.75000  1.0000
  Mg  Mg2816    1.0  0.30000  0.06667  0.75000  1.0000
  Mg  Mg2817    1.0  0.40000  0.00000  0.70000  1.0000
  Mg  Mg2818    1.0  0.45000  0.05000  0.70000  1.0000
  Mg  Mg2819    1.0  0.45000  0.01667  0.75000  1.0000
  Mg  Mg2820    1.0  0.40000  0.06667  0.75000  1.0000
  Mg  Mg2821    1.0  0.50000  0.00000  0.70000  1.0000
  Mg  Mg2822    1.0  0.55000  0.05000  0.70000  1.0000
  Mg  Mg2823    1.0  0.55000  0.01667  0.75000  1.0000
  Mg  Mg2824    1.0  0.50000  0.06667  0.75000  1.0000
  Mg  Mg2825    1.0  0.60000  0.00000  0.70000  1.0000
  Mg  Mg2826    1.0  0.65000  0.05000  0.70000  1.0000
  Mg  Mg2827    1.0  0.65000  0.01667  0.75000  1.0000
  Mg  Mg2828    1.0  0.60000  0.06667  0.75000  1.0000
  Mg  Mg2829    1.0  0.70000  0.00000  0.70000  1.0000
  Mg  Mg2830    1.0  0.75000  0.05000  0.70000  1.0000
  Mg  Mg2831    1.0  0.75000  0.01667  0.75000  1.0000
  Mg  Mg2832    1.0  0.70000  0.06667  0.75000  1.0000
  Mg  Mg2833    1.0  0.80000  0.00000  0.70000  1.0000
  Mg  Mg2834    1.0  0.85000  0.05000  0.70000  1.0000
  Mg  Mg2835    1.0  0.85000  0.01667  0.75000  1.0000
  Mg  Mg2836    1.0  0.80000  0.06667  0.75000  1.0000
  Mg  Mg2837    1.0  0.90000  0.00000  0.70000  1.0000
  Mg  Mg2838    1.0  0.95000  0.05000  0.70000  1.0000
  Mg  Mg2839    1.0  0.95000  0.01667  0.75000  1.0000
  Mg  Mg2840    1.0  0.90000  0.06667  0.75000  1.0000
  Mg  Mg2841    1.0  0.00000  0.10000  0.70000  1.0000
  Mg  Mg2842    1.0  0.05000  0.15000  0.70000  1.0000
  Mg  Mg2843    1.0  0.05000  0.11667  0.75000  1.0000
  Mg  Mg2844    1.0  0.00000  0.16667  0.75000  1.0000
  Mg  Mg2845    1.0  0.10000  0.10000  0.70000  1.0000
  Mg  Mg2846    1.0  0.15000  0.15000  0.70000  1.0000
  Mg  Mg2847    1.0  0.15000  0.11667  0.75000  1.0000
  Mg  Mg2848    1.0  0.10000  0.16667  0.75000  1.0000
  Mg  Mg2849    1.0  0.20000  0.10000  0.70000  1.0000
  Mg  Mg2850    1.0  0.25000  0.15000  0.70000  1.0000
  Mg  Mg2851    1.0  0.25000  0.11667  0.75000  1.0000
  Mg  Mg2852    1.0  0.20000  0.16667  0.75000  1.0000
  Mg  Mg2853    1.0  0.30000  0.10000  0.70000  1.0000
  Mg  Mg2854    1.0  0.35000  0.15000  0.70000  1.0000
  Mg  Mg2855    1.0  0.35000  0.11667  0.75000  1.0000
  Mg  Mg2856    1.0  0.30000  0.16667  0.75000  1.0000
  Mg  Mg2857    1.0  0.40000  0.10000  0.70000  1.0000
  Mg  Mg2858    1.0  0.45000  0.15000  0.70000  1.0000
  Mg  Mg2859    1.0  0.45000  0.11667  0.75000  1.0000
  Mg  Mg2860    1.0  0.40000  0.16667  0.75000  1.0000
  Mg  Mg2861    1.0  0.50000  0.10000  0.70000  1.0000
  Mg  Mg2862    1.0  0.55000  0.15000  0.70000  1.0000
  Mg  Mg2863    1.0  0.55000  0.11667  0.75000  1.0000
  Mg  Mg2864    1.0  0.50000  0.16667  0.75000  1.0000
  Mg  Mg2865    1.0  0.60000  0.10000  0.70000  1.0000
  Mg  Mg2866    1.0  0.65000  0.15000  0.70000  1.0000
  Mg  Mg2867    1.0  0.65000  0.11667  0.75000  1.0000
  Mg  Mg2868    1.0  0.60000  0.16667  0.75000  1.0000
  Mg  Mg2869    1.0  0.70000  0.10000  0.70000  1.0000
  Mg  Mg2870    1.0  0.75000  0.15000  0.70000  1.0000
  Mg  Mg2871    1.0  0.75000  0.11667  0.75000  1.0000
  Mg  Mg2872    1.0  0.70000  0.16667  0.75000  1.0000
  Mg  Mg2873    1.0  0.80000  0.10000  0.70000  1.0000
  Mg  Mg2874    1.0  0.85000  0.15000  0.70000  1.0000
  Mg  Mg2875    1.0  0.85000  0.11667  0.75000  1.0000
  Mg  Mg2876    1.0  0.80000  0.16667  0.75000  1.0000
  Mg  Mg2877    1.0  0.90000  0.10000  0.70000  1.0000
  Mg  Mg2878    1.0  0.95000  0.15000  0.70000  1.0000
  Mg  Mg2879    1.0  0.95000  0.11667  0.75000  1.0000
  Mg  Mg2880    1.0  0.90000  0.16667  0.75000  1.0000
  Mg  Mg2881    1.0  0.00000  0.20000  0.70000  1.0000
  Mg  Mg2882    1.0  0.05000  0.25000  0.70000  1.0000
  Mg  Mg2883    1.0  0.05000  0.21667  0.75000  1.0000
  Mg  Mg2884    1.0  0.00000  0.26667  0.75000  1.0000
  Mg  Mg2885    1.0  0.10000  0.20000  0.70000  1.0000
  Mg  Mg2886    1.0  0.15000  0.25000  0.70000  1.0000
  Mg  Mg2887    1.0  0.15000  0.21667  0.75000  1.0000
  Mg  Mg2888    1.0  0.10000  0.26667  0.75000  1.0000
  Mg  Mg2889    1.0  0.20000  0.20000  0.70000  1.0000
  Mg  Mg2890    1.0  0.25000  0.25000  0.70000  1.0000
  Mg  Mg2891    1.0  0.25000  0.21667  0.75000  1.0000
  Mg  Mg2892    1.0  0.20000  0.26667  0.75000  1.0000
  Mg  Mg2893    1.0  0.30000  0.20000  0.70000  1.0000
  Mg  Mg2894    1.0  0.35000  0.25000  0.70000  1.0000
  Mg  Mg2895    1.0  0.35000  0.21667  0.75000  1.0000
  Mg  Mg2896    1.0  0.30000  0.26667  0.75000  1.0000
  Mg  Mg2897    1.0  0.40000  0.20000  0.70000  1.0000
  Mg  Mg2898    1.0  0.45000  0.25000  0.70000  1.0000
  Mg  Mg2899    1.0  0.45000  0.21667  0.75000  1.0000
  Mg  Mg2900    1.0  0.40000  0.26667  0.75000  1.0000
  Mg  Mg2901    1.0  0.50000  0.20000  0.70000  1.0000
  Mg  Mg2902    1.0  0.55000  0.25000  0.70000  1.0000
  Mg  Mg2903    1.0  0.55000  0.21667  0.75000  1.0000
  Mg  Mg2904    1.0  0.50000  0.26667  0.75000  1.0000
  Mg  Mg2905    1.0  0.60000  0.20000  0.70000  1.0000
  Mg  Mg2906    1.0  0.65000  0.25000  0.70000  1.0000
  Mg  Mg2907    1.0  0.65000  0.21667  0.75000  1.0000
  Mg  Mg2908    1.0  0.60000  0.26667  0.75000  1.0000
  Mg  Mg2909    1.0  0.70000  0.20000  0.70000  1.0000
  Mg  Mg2910    1.0  0.75000  0.25000  0.70000  1.0000
  Mg  Mg2911    1.0  0.75000  0.21667  0.75000  1.0000
  Mg  Mg2912    1.0  0.70000  0.26667  0.75000  1.0000
  Mg  Mg2913    1.0  0.80000  0.20000  0.70000  1.0000
  Mg  Mg2914    1.0  0.85000  0.25000  0.70000  1.0000
  Mg  Mg2915    1.0  0.85000  0.21667  0.75000  1.0000
  Mg  Mg2916    1.0  0.80000  0.26667  0.75000  1.0000
  Mg  Mg2917    1.0  0.90000  0.20000  0.70000  1.0000
  Mg  Mg2918    1.0  0.95000  0.25000  0.70000  1.0000
  Mg  Mg2919    1.0  0.95000  0.21667  0.75000  1.0000
  Mg  Mg2920    1.0  0.90000  0.26667  0.75000  1.0000
  Mg  Mg2921    1.0  0.00000  0.30000  0.70000  1.0000
  Mg  Mg2922    1.0  0.05000  0.35000  0.70000  1.0000
  Mg  Mg2923    1.0  0.05000  0.31667  0.75000  1.0000
  Mg  Mg2924    1.0  0.00000  0.36667  0.75000  1.0000
  Mg  Mg2925    1.0  0.10000  0.30000  0.70000  1.0000
  Mg  Mg2926    1.0  0.15000  0.35000  0.70000  1.0000
  Mg  Mg2927    1.0  0.15000  0.31667  0.75000  1.0000
  Mg  Mg2928    1.0  0.10000  0.36667  0.75000  1.0000
  Mg  Mg2929    1.0  0.20000  0.30000  0.70000  1.0000
  Mg  Mg2930    1.0  0.25000  0.35000  0.70000  1.0000
  Mg  Mg2931    1.0  0.25000  0.31667  0.75000  1.0000
  Mg  Mg2932    1.0  0.20000  0.36667  0.75000  1.0000
  Mg  Mg2933    1.0  0.30000  0.30000  0.70000  1.0000
  Mg  Mg2934    1.0  0.35000  0.35000  0.70000  1.0000
  Mg  Mg2935    1.0  0.35000  0.31667  0.75000  1.0000
  Mg  Mg2936    1.0  0.30000  0.36667  0.75000  1.0000
  Mg  Mg2937    1.0  0.40000  0.30000  0.70000  1.0000
  Mg  Mg2938    1.0  0.45000  0.35000  0.70000  1.0000
  Mg  Mg2939    1.0  0.45000  0.31667  0.75000  1.0000
  Mg  Mg2940    1.0  0.40000  0.36667  0.75000  1.0000
  Mg  Mg2941    1.0  0.50000  0.30000  0.70000  1.0000
  Mg  Mg2942    1.0  0.55000  0.35000  0.70000  1.0000
  Mg  Mg2943    1.0  0.55000  0.31667  0.75000  1.0000
  Mg  Mg2944    1.0  0.50000  0.36667  0.75000  1.0000
  Mg  Mg2945    1.0  0.60000  0.30000  0.70000  1.0000
  Mg  Mg2946    1.0  0.65000  0.35000  0.70000  1.0000
  Mg  Mg2947    1.0  0.65000  0.31667  0.75000  1.0000
  Mg  Mg2948    1.0  0.60000  0.36667  0.75000  1.0000
  Mg  Mg2949    1.0  0.70000  0.30000  0.70000  1.0000
  Mg  Mg2950    1.0  0.75000  0.35000  0.70000  1.0000
  Mg  Mg2951    1.0  0.75000  0.31667  0.75000  1.0000
  Mg  Mg2952    1.0  0.70000  0.36667  0.75000  1.0000
  Mg  Mg2953    1.0  0.80000  0.30000  0.70000  1.0000
  Mg  Mg2954    1.0  0.85000  0.35000  0.70000  1.0000
  Mg  Mg2955    1.0  0.85000  0.31667  0.75000  1.0000
  Mg  Mg2956    1.0  0.80000  0.36667  0.75000  1.0000
  Mg  Mg2957    1.0  0.90000  0.30000  0.70000  1.0000
  Mg  Mg2958    1.0  0.95000  0.35000  0.70000  1.0000
  Mg  Mg2959    1.0  0.95000  0.31667  0.75000  1.0000
  Mg  Mg2960    1.0  0.90000  0.36667  0.75000  1.0000
  Mg  Mg2961    1.0  0.00000  0.40000  0.70000  1.0000
  Mg  Mg2962    1.0  0.05000  0.45000  0.70000  1.0000
  Mg  Mg2963    1.0  0.05000  0.41667  0.75000  1.0000
  Mg  Mg2964    1.0  0.00000  0.46667  0.75000  1.0000
  Mg  Mg2965    1.0  0.10000  0.40000  0.70000  1.0000
  Mg  Mg2966    1.0  0.15000  0.45000  0.70000  1.0000
  Mg  Mg2967    1.0  0.15000  0.41667  0.75000  1.0000
  Mg  Mg2968    1.0  0.10000  0.46667  0.75000  1.0000
  Mg  Mg2969    1.0  0.20000  0.40000  0.70000  1.0000
  Mg  Mg2970    1.0  0.25000  0.45000  0.70000  1.0000
  Mg  Mg2971    1.0  0.25000  0.41667  0.75000  1.0000
  Mg  Mg2972    1.0  0.20000  0.46667  0.75000  1.0000
  Mg  Mg2973    1.0  0.30000  0.40000  0.70000  1.0000
  Mg  Mg2974    1.0  0.35000  0.45000  0.70000  1.0000
  Mg  Mg2975    1.0  0.35000  0.41667  0.75000  1.0000
  Mg  Mg2976    1.0  0.30000  0.46667  0.75000  1.0000
  Mg  Mg2977    1.0  0.40000  0.40000  0.70000  1.0000
  Mg  Mg2978    1.0  0.45000  0.45000  0.70000  1.0000
  Mg  Mg2979    1.0  0.45000  0.41667  0.75000  1.0000
  Mg  Mg2980    1.0  0.40000  0.46667  0.75000  1.0000
  Mg  Mg2981    1.0  0.50000  0.40000  0.70000  1.0000
  Mg  Mg2982    1.0  0.55000  0.45000  0.70000  1.0000
  Mg  Mg2983    1.0  0.55000  0.41667  0.75000  1.0000
  Mg  Mg2984    1.0  0.50000  0.46667  0.75000  1.0000
  Mg  Mg2985    1.0  0.60000  0.40000  0.70000  1.0000
  Mg  Mg2986    1.0  0.65000  0.45000  0.70000  1.0000
  Mg  Mg2987    1.0  0.65000  0.41667  0.75000  1.0000
  Mg  Mg2988    1.0  0.60000  0.46667  0.75000  1.0000
  Mg  Mg2989    1.0  0.70000  0.40000  0.70000  1.0000
  Mg  Mg2990    1.0  0.75000  0.45000  0.70000  1.0000
  Mg  Mg2991    1.0  0.75000  0.41667  0.75000  1.0000
  Mg  Mg2992    1.0  0.70000  0.46667  0.75000  1.0000
  Mg  Mg2993    1.0  0.80000  0.40000  0.70000  1.0000
  Mg  Mg2994    1.0  0.85000  0.45000  0.70000  1.0000
  Mg  Mg2995    1.0  0.85000  0.41667  0.75000  1.0000
  Mg  Mg2996    1.0  0.80000  0.46667  0.75000  1.0000
  Mg  Mg2997    1.0  0.90000  0.40000  0.70000  1.0000
  Mg  Mg2998    1.0  0.95000  0.45000  0.70000  1.0000
  Mg  Mg2999    1.0  0.95000  0.41667  0.75000  1.0000
  Mg  Mg3000    1.0  0.90000  0.46667  0.75000  1.0000
  Mg  Mg3001    1.0  0.00000  0.50000  0.70000  1.0000
  Mg  Mg3002    1.0  0.05000  0.55000  0.70000  1.0000
  Mg  Mg3003    1.0  0.05000  0.51667  0.75000  1.0000
  Mg  Mg3004    1.0  0.00000  0.56667  0.75000  1.0000
  Mg  Mg3005    1.0  0.10000  0.50000  0.70000  1.0000
  Mg  Mg3006    1.0  0.15000  0.55000  0.70000  1.0000
  Mg  Mg3007    1.0  0.15000  0.51667  0.75000  1.0000
  Mg  Mg3008    1.0  0.10000  0.56667  0.75000  1.0000
  Mg  Mg3009    1.0  0.20000  0.50000  0.70000  1.0000
  Mg  Mg3010    1.0  0.25000  0.55000  0.70000  1.0000
  Mg  Mg3011    1.0  0.25000  0.51667  0.75000  1.0000
  Mg  Mg3012    1.0  0.20000  0.56667  0.75000  1.0000
  Mg  Mg3013    1.0  0.30000  0.50000  0.70000  1.0000
  Mg  Mg3014    1.0  0.35000  0.55000  0.70000  1.0000
  Mg  Mg3015    1.0  0.35000  0.51667  0.75000  1.0000
  Mg  Mg3016    1.0  0.30000  0.56667  0.75000  1.0000
  Mg  Mg3017    1.0  0.40000  0.50000  0.70000  1.0000
  Mg  Mg3018    1.0  0.45000  0.55000  0.70000  1.0000
  Mg  Mg3019    1.0  0.45000  0.51667  0.75000  1.0000
  Mg  Mg3020    1.0  0.40000  0.56667  0.75000  1.0000
  Mg  Mg3021    1.0  0.50000  0.50000  0.70000  1.0000
  Mg  Mg3022    1.0  0.55000  0.55000  0.70000  1.0000
  Mg  Mg3023    1.0  0.55000  0.51667  0.75000  1.0000
  Mg  Mg3024    1.0  0.50000  0.56667  0.75000  1.0000
  Mg  Mg3025    1.0  0.60000  0.50000  0.70000  1.0000
  Mg  Mg3026    1.0  0.65000  0.55000  0.70000  1.0000
  Mg  Mg3027    1.0  0.65000  0.51667  0.75000  1.0000
  Mg  Mg3028    1.0  0.60000  0.56667  0.75000  1.0000
  Mg  Mg3029    1.0  0.70000  0.50000  0.70000  1.0000
  Mg  Mg3030    1.0  0.75000  0.55000  0.70000  1.0000
  Mg  Mg3031    1.0  0.75000  0.51667  0.75000  1.0000
  Mg  Mg3032    1.0  0.70000  0.56667  0.75000  1.0000
  Mg  Mg3033    1.0  0.80000  0.50000  0.70000  1.0000
  Mg  Mg3034    1.0  0.85000  0.55000  0.70000  1.0000
  Mg  Mg3035    1.0  0.85000  0.51667  0.75000  1.0000
  Mg  Mg3036    1.0  0.80000  0.56667  0.75000  1.0000
  Mg  Mg3037    1.0  0.90000  0.50000  0.70000  1.0000
  Mg  Mg3038    1.0  0.95000  0.55000  0.70000  1.0000
  Mg  Mg3039    1.0  0.95000  0.51667  0.75000  1.0000
  Mg  Mg3040    1.0  0.90000  0.56667  0.75000  1.0000
  Mg  Mg3041    1.0  0.00000  0.60000  0.70000  1.0000
  Mg  Mg3042    1.0  0.05000  0.65000  0.70000  1.0000
  Mg  Mg3043    1.0  0.05000  0.61667  0.75000  1.0000
  Mg  Mg3044    1.0  0.00000  0.66667  0.75000  1.0000
  Mg  Mg3045    1.0  0.10000  0.60000  0.70000  1.0000
  Mg  Mg3046    1.0  0.15000  0.65000  0.70000  1.0000
  Mg  Mg3047    1.0  0.15000  0.61667  0.75000  1.0000
  Mg  Mg3048    1.0  0.10000  0.66667  0.75000  1.0000
  Mg  Mg3049    1.0  0.20000  0.60000  0.70000  1.0000
  Mg  Mg3050    1.0  0.25000  0.65000  0.70000  1.0000
  Mg  Mg3051    1.0  0.25000  0.61667  0.75000  1.0000
  Mg  Mg3052    1.0  0.20000  0.66667  0.75000  1.0000
  Mg  Mg3053    1.0  0.30000  0.60000  0.70000  1.0000
  Mg  Mg3054    1.0  0.35000  0.65000  0.70000  1.0000
  Mg  Mg3055    1.0  0.35000  0.61667  0.75000  1.0000
  Mg  Mg3056    1.0  0.30000  0.66667  0.75000  1.0000
  Mg  Mg3057    1.0  0.40000  0.60000  0.70000  1.0000
  Mg  Mg3058    1.0  0.45000  0.65000  0.70000  1.0000
  Mg  Mg3059    1.0  0.45000  0.61667  0.75000  1.0000
  Mg  Mg3060    1.0  0.40000  0.66667  0.75000  1.0000
  Mg  Mg3061    1.0  0.50000  0.60000  0.70000  1.0000
  Mg  Mg3062    1.0  0.55000  0.65000  0.70000  1.0000
  Mg  Mg3063    1.0  0.55000  0.61667  0.75000  1.0000
  Mg  Mg3064    1.0  0.50000  0.66667  0.75000  1.0000
  Mg  Mg3065    1.0  0.60000  0.60000  0.70000  1.0000
  Mg  Mg3066    1.0  0.65000  0.65000  0.70000  1.0000
  Mg  Mg3067    1.0  0.65000  0.61667  0.75000  1.0000
  Mg  Mg3068    1.0  0.60000  0.66667  0.75000  1.0000
  Mg  Mg3069    1.0  0.70000  0.60000  0.70000  1.0000
  Mg  Mg3070    1.0  0.75000  0.65000  0.70000  1.0000
  Mg  Mg3071    1.0  0.75000  0.61667  0.75000  1.0000
  Mg  Mg3072    1.0  0.70000  0.66667  0.75000  1.0000
  Mg  Mg3073    1.0  0.80000  0.60000  0.70000  1.0000
  Mg  Mg3074    1.0  0.85000  0.65000  0.70000  1.0000
  Mg  Mg3075    1.0  0.85000  0.61667  0.75000  1.0000
  Mg  Mg3076    1.0  0.80000  0.66667  0.75000  1.0000
  Mg  Mg3077    1.0  0.90000  0.60000  0.70000  1.0000
  Mg  Mg3078    1.0  0.95000  0.65000  0.70000  1.0000
  Mg  Mg3079    1.0  0.95000  0.61667  0.75000  1.0000
  Mg  Mg3080    1.0  0.90000  0.66667  0.75000  1.0000
  Mg  Mg3081    1.0  0.00000  0.70000  0.70000  1.0000
  Mg  Mg3082    1.0  0.05000  0.75000  0.70000  1.0000
  Mg  Mg3083    1.0  0.05000  0.71667  0.75000  1.0000
  Mg  Mg3084    1.0  0.00000  0.76667  0.75000  1.0000
  Mg  Mg3085    1.0  0.10000  0.70000  0.70000  1.0000
  Mg  Mg3086    1.0  0.15000  0.75000  0.70000  1.0000
  Mg  Mg3087    1.0  0.15000  0.71667  0.75000  1.0000
  Mg  Mg3088    1.0  0.10000  0.76667  0.75000  1.0000
  Mg  Mg3089    1.0  0.20000  0.70000  0.70000  1.0000
  Mg  Mg3090    1.0  0.25000  0.75000  0.70000  1.0000
  Mg  Mg3091    1.0  0.25000  0.71667  0.75000  1.0000
  Mg  Mg3092    1.0  0.20000  0.76667  0.75000  1.0000
  Mg  Mg3093    1.0  0.30000  0.70000  0.70000  1.0000
  Mg  Mg3094    1.0  0.35000  0.75000  0.70000  1.0000
  Mg  Mg3095    1.0  0.35000  0.71667  0.75000  1.0000
  Mg  Mg3096    1.0  0.30000  0.76667  0.75000  1.0000
  Mg  Mg3097    1.0  0.40000  0.70000  0.70000  1.0000
  Mg  Mg3098    1.0  0.45000  0.75000  0.70000  1.0000
  Mg  Mg3099    1.0  0.45000  0.71667  0.75000  1.0000
  Mg  Mg3100    1.0  0.40000  0.76667  0.75000  1.0000
  Mg  Mg3101    1.0  0.50000  0.70000  0.70000  1.0000
  Mg  Mg3102    1.0  0.55000  0.75000  0.70000  1.0000
  Mg  Mg3103    1.0  0.55000  0.71667  0.75000  1.0000
  Mg  Mg3104    1.0  0.50000  0.76667  0.75000  1.0000
  Mg  Mg3105    1.0  0.60000  0.70000  0.70000  1.0000
  Mg  Mg3106    1.0  0.65000  0.75000  0.70000  1.0000
  Mg  Mg3107    1.0  0.65000  0.71667  0.75000  1.0000
  Mg  Mg3108    1.0  0.60000  0.76667  0.75000  1.0000
  Mg  Mg3109    1.0  0.70000  0.70000  0.70000  1.0000
  Mg  Mg3110    1.0  0.75000  0.75000  0.70000  1.0000
  Mg  Mg3111    1.0  0.75000  0.71667  0.75000  1.0000
  Mg  Mg3112    1.0  0.70000  0.76667  0.75000  1.0000
  Mg  Mg3113    1.0  0.80000  0.70000  0.70000  1.0000
  Mg  Mg3114    1.0  0.85000  0.75000  0.70000  1.0000
  Mg  Mg3115    1.0  0.85000  0.71667  0.75000  1.0000
  Mg  Mg3116    1.0  0.80000  0.76667  0.75000  1.0000
  Mg  Mg3117    1.0  0.90000  0.70000  0.70000  1.0000
  Mg  Mg3118    1.0  0.95000  0.75000  0.70000  1.0000
  Mg  Mg3119    1.0  0.95000  0.71667  0.75000  1.0000
  Mg  Mg3120    1.0  0.90000  0.76667  0.75000  1.0000
  Mg  Mg3121    1.0  0.00000  0.80000  0.70000  1.0000
  Mg  Mg3122    1.0  0.05000  0.85000  0.70000  1.0000
  Mg  Mg3123    1.0  0.05000  0.81667  0.75000  1.0000
  Mg  Mg3124    1.0  0.00000  0.86667  0.75000  1.0000
  Mg  Mg3125    1.0  0.10000  0.80000  0.70000  1.0000
  Mg  Mg3126    1.0  0.15000  0.85000  0.70000  1.0000
  Mg  Mg3127    1.0  0.15000  0.81667  0.75000  1.0000
  Mg  Mg3128    1.0  0.10000  0.86667  0.75000  1.0000
  Mg  Mg3129    1.0  0.20000  0.80000  0.70000  1.0000
  Mg  Mg3130    1.0  0.25000  0.85000  0.70000  1.0000
  Mg  Mg3131    1.0  0.25000  0.81667  0.75000  1.0000
  Mg  Mg3132    1.0  0.20000  0.86667  0.75000  1.0000
  Mg  Mg3133    1.0  0.30000  0.80000  0.70000  1.0000
  Mg  Mg3134    1.0  0.35000  0.85000  0.70000  1.0000
  Mg  Mg3135    1.0  0.35000  0.81667  0.75000  1.0000
  Mg  Mg3136    1.0  0.30000  0.86667  0.75000  1.0000
  Mg  Mg3137    1.0  0.40000  0.80000  0.70000  1.0000
  Mg  Mg3138    1.0  0.45000  0.85000  0.70000  1.0000
  Mg  Mg3139    1.0  0.45000  0.81667  0.75000  1.0000
  Mg  Mg3140    1.0  0.40000  0.86667  0.75000  1.0000
  Mg  Mg3141    1.0  0.50000  0.80000  0.70000  1.0000
  Mg  Mg3142    1.0  0.55000  0.85000  0.70000  1.0000
  Mg  Mg3143    1.0  0.55000  0.81667  0.75000  1.0000
  Mg  Mg3144    1.0  0.50000  0.86667  0.75000  1.0000
  Mg  Mg3145    1.0  0.60000  0.80000  0.70000  1.0000
  Mg  Mg3146    1.0  0.65000  0.85000  0.70000  1.0000
  Mg  Mg3147    1.0  0.65000  0.81667  0.75000  1.0000
  Mg  Mg3148    1.0  0.60000  0.86667  0.75000  1.0000
  Mg  Mg3149    1.0  0.70000  0.80000  0.70000  1.0000
  Mg  Mg3150    1.0  0.75000  0.85000  0.70000  1.0000
  Mg  Mg3151    1.0  0.75000  0.81667  0.75000  1.0000
  Mg  Mg3152    1.0  0.70000  0.86667  0.75000  1.0000
  Mg  Mg3153    1.0  0.80000  0.80000  0.70000  1.0000
  Mg  Mg3154    1.0  0.85000  0.85000  0.70000  1.0000
  Mg  Mg3155    1.0  0.85000  0.81667  0.75000  1.0000
  Mg  Mg3156    1.0  0.80000  0.86667  0.75000  1.0000
  Mg  Mg3157    1.0  0.90000  0.80000  0.70000  1.0000
  Mg  Mg3158    1.0  0.95000  0.85000  0.70000  1.0000
  Mg  Mg3159    1.0  0.95000  0.81667  0.75000  1.0000
  Mg  Mg3160    1.0  0.90000  0.86667  0.75000  1.0000
  Mg  Mg3161    1.0  0.00000  0.90000  0.70000  1.0000
  Mg  Mg3162    1.0  0.05000  0.95000  0.70000  1.0000
  Mg  Mg3163    1.0  0.05000  0.91667  0.75000  1.0000
  Mg  Mg3164    1.0  0.00000  0.96667  0.75000  1.0000
  Mg  Mg3165    1.0  0.10000  0.90000  0.70000  1.0000
  Mg  Mg3166    1.0  0.15000  0.95000  0.70000  1.0000
  Mg  Mg3167    1.0  0.15000  0.91667  0.75000  1.0000
  Mg  Mg3168    1.0  0.10000  0.96667  0.75000  1.0000
  Mg  Mg3169    1.0  0.20000  0.90000  0.70000  1.0000
  Mg  Mg3170    1.0  0.25000  0.95000  0.70000  1.0000
  Mg  Mg3171    1.0  0.25000  0.91667  0.75000  1.0000
  Mg  Mg3172    1.0  0.20000  0.96667  0.75000  1.0000
  Mg  Mg3173    1.0  0.30000  0.90000  0.70000  1.0000
  Mg  Mg3174    1.0  0.35000  0.95000  0.70000  1.0000
  Mg  Mg3175    1.0  0.35000  0.91667  0.75000  1.0000
  Mg  Mg3176    1.0  0.30000  0.96667  0.75000  1.0000
  Mg  Mg3177    1.0  0.40000  0.90000  0.70000  1.0000
  Mg  Mg3178    1.0  0.45000  0.95000  0.70000  1.0000
  Mg  Mg3179    1.0  0.45000  0.91667  0.75000  1.0000
  Mg  Mg3180    1.0  0.40000  0.96667  0.75000  1.0000
  Mg  Mg3181    1.0  0.50000  0.90000  0.70000  1.0000
  Mg  Mg3182    1.0  0.55000  0.95000  0.70000  1.0000
  Mg  Mg3183    1.0  0.55000  0.91667  0.75000  1.0000
  Mg  Mg3184    1.0  0.50000  0.96667  0.75000  1.0000
  Mg  Mg3185    1.0  0.60000  0.90000  0.70000  1.0000
  Mg  Mg3186    1.0  0.65000  0.95000  0.70000  1.0000
  Mg  Mg3187    1.0  0.65000  0.91667  0.75000  1.0000
  Mg  Mg3188    1.0  0.60000  0.96667  0.75000  1.0000
  Mg  Mg3189    1.0  0.70000  0.90000  0.70000  1.0000
  Mg  Mg3190    1.0  0.75000  0.95000  0.70000  1.0000
  Mg  Mg3191    1.0  0.75000  0.91667  0.75000  1.0000
  Mg  Mg3192    1.0  0.70000  0.96667  0.75000  1.0000
  Mg  Mg3193    1.0  0.80000  0.90000  0.70000  1.0000
  Mg  Mg3194    1.0  0.85000  0.95000  0.70000  1.0000
  Mg  Mg3195    1.0  0.85000  0.91667  0.75000  1.0000
  Mg  Mg3196    1.0  0.80000  0.96667  0.75000  1.0000
  Mg  Mg3197    1.0  0.90000  0.90000  0.70000  1.0000
  Mg  Mg3198    1.0  0.95000  0.95000  0.70000  1.0000
  Mg  Mg3199    1.0  0.95000  0.91667  0.75000  1.0000
  Mg  Mg3200    1.0  0.90000  0.96667  0.75000  1.0000
  Mg  Mg3201    1.0  0.00000  0.00000  0.80000  1.0000
  Mg  Mg3202    1.0  0.05000  0.05000  0.80000  1.0000
  Mg  Mg3203    1.0  0.05000  0.01667  0.85000  1.0000
  Mg  Mg3204    1.0  0.00000  0.06667  0.85000  1.0000
  Mg  Mg3205    1.0  0.10000  0.00000  0.80000  1.0000
  Mg  Mg3206    1.0  0.15000  0.05000  0.80000  1.0000
  Mg  Mg3207    1.0  0.15000  0.01667  0.85000  1.0000
  Mg  Mg3208    1.0  0.10000  0.06667  0.85000  1.0000
  Mg  Mg3209    1.0  0.20000  0.00000  0.80000  1.0000
  Mg  Mg3210    1.0  0.25000  0.05000  0.80000  1.0000
  Mg  Mg3211    1.0  0.25000  0.01667  0.85000  1.0000
  Mg  Mg3212    1.0  0.20000  0.06667  0.85000  1.0000
  Mg  Mg3213    1.0  0.30000  0.00000  0.80000  1.0000
  Mg  Mg3214    1.0  0.35000  0.05000  0.80000  1.0000
  Mg  Mg3215    1.0  0.35000  0.01667  0.85000  1.0000
  Mg  Mg3216    1.0  0.30000  0.06667  0.85000  1.0000
  Mg  Mg3217    1.0  0.40000  0.00000  0.80000  1.0000
  Mg  Mg3218    1.0  0.45000  0.05000  0.80000  1.0000
  Mg  Mg3219    1.0  0.45000  0.01667  0.85000  1.0000
  Mg  Mg3220    1.0  0.40000  0.06667  0.85000  1.0000
  Mg  Mg3221    1.0  0.50000  0.00000  0.80000  1.0000
  Mg  Mg3222    1.0  0.55000  0.05000  0.80000  1.0000
  Mg  Mg3223    1.0  0.55000  0.01667  0.85000  1.0000
  Mg  Mg3224    1.0  0.50000  0.06667  0.85000  1.0000
  Mg  Mg3225    1.0  0.60000  0.00000  0.80000  1.0000
  Mg  Mg3226    1.0  0.65000  0.05000  0.80000  1.0000
  Mg  Mg3227    1.0  0.65000  0.01667  0.85000  1.0000
  Mg  Mg3228    1.0  0.60000  0.06667  0.85000  1.0000
  Mg  Mg3229    1.0  0.70000  0.00000  0.80000  1.0000
  Mg  Mg3230    1.0  0.75000  0.05000  0.80000  1.0000
  Mg  Mg3231    1.0  0.75000  0.01667  0.85000  1.0000
  Mg  Mg3232    1.0  0.70000  0.06667  0.85000  1.0000
  Mg  Mg3233    1.0  0.80000  0.00000  0.80000  1.0000
  Mg  Mg3234    1.0  0.85000  0.05000  0.80000  1.0000
  Mg  Mg3235    1.0  0.85000  0.01667  0.85000  1.0000
  Mg  Mg3236    1.0  0.80000  0.06667  0.85000  1.0000
  Mg  Mg3237    1.0  0.90000  0.00000  0.80000  1.0000
  Mg  Mg3238    1.0  0.95000  0.05000  0.80000  1.0000
  Mg  Mg3239    1.0  0.95000  0.01667  0.85000  1.0000
  Mg  Mg3240    1.0  0.90000  0.06667  0.85000  1.0000
  Mg  Mg3241    1.0  0.00000  0.10000  0.80000  1.0000
  Mg  Mg3242    1.0  0.05000  0.15000  0.80000  1.0000
  Mg  Mg3243    1.0  0.05000  0.11667  0.85000  1.0000
  Mg  Mg3244    1.0  0.00000  0.16667  0.85000  1.0000
  Mg  Mg3245    1.0  0.10000  0.10000  0.80000  1.0000
  Mg  Mg3246    1.0  0.15000  0.15000  0.80000  1.0000
  Mg  Mg3247    1.0  0.15000  0.11667  0.85000  1.0000
  Mg  Mg3248    1.0  0.10000  0.16667  0.85000  1.0000
  Mg  Mg3249    1.0  0.20000  0.10000  0.80000  1.0000
  Mg  Mg3250    1.0  0.25000  0.15000  0.80000  1.0000
  Mg  Mg3251    1.0  0.25000  0.11667  0.85000  1.0000
  Mg  Mg3252    1.0  0.20000  0.16667  0.85000  1.0000
  Mg  Mg3253    1.0  0.30000  0.10000  0.80000  1.0000
  Mg  Mg3254    1.0  0.35000  0.15000  0.80000  1.0000
  Mg  Mg3255    1.0  0.35000  0.11667  0.85000  1.0000
  Mg  Mg3256    1.0  0.30000  0.16667  0.85000  1.0000
  Mg  Mg3257    1.0  0.40000  0.10000  0.80000  1.0000
  Mg  Mg3258    1.0  0.45000  0.15000  0.80000  1.0000
  Mg  Mg3259    1.0  0.45000  0.11667  0.85000  1.0000
  Mg  Mg3260    1.0  0.40000  0.16667  0.85000  1.0000
  Mg  Mg3261    1.0  0.50000  0.10000  0.80000  1.0000
  Mg  Mg3262    1.0  0.55000  0.15000  0.80000  1.0000
  Mg  Mg3263    1.0  0.55000  0.11667  0.85000  1.0000
  Mg  Mg3264    1.0  0.50000  0.16667  0.85000  1.0000
  Mg  Mg3265    1.0  0.60000  0.10000  0.80000  1.0000
  Mg  Mg3266    1.0  0.65000  0.15000  0.80000  1.0000
  Mg  Mg3267    1.0  0.65000  0.11667  0.85000  1.0000
  Mg  Mg3268    1.0  0.60000  0.16667  0.85000  1.0000
  Mg  Mg3269    1.0  0.70000  0.10000  0.80000  1.0000
  Mg  Mg3270    1.0  0.75000  0.15000  0.80000  1.0000
  Mg  Mg3271    1.0  0.75000  0.11667  0.85000  1.0000
  Mg  Mg3272    1.0  0.70000  0.16667  0.85000  1.0000
  Mg  Mg3273    1.0  0.80000  0.10000  0.80000  1.0000
  Mg  Mg3274    1.0  0.85000  0.15000  0.80000  1.0000
  Mg  Mg3275    1.0  0.85000  0.11667  0.85000  1.0000
  Mg  Mg3276    1.0  0.80000  0.16667  0.85000  1.0000
  Mg  Mg3277    1.0  0.90000  0.10000  0.80000  1.0000
  Mg  Mg3278    1.0  0.95000  0.15000  0.80000  1.0000
  Mg  Mg3279    1.0  0.95000  0.11667  0.85000  1.0000
  Mg  Mg3280    1.0  0.90000  0.16667  0.85000  1.0000
  Mg  Mg3281    1.0  0.00000  0.20000  0.80000  1.0000
  Mg  Mg3282    1.0  0.05000  0.25000  0.80000  1.0000
  Mg  Mg3283    1.0  0.05000  0.21667  0.85000  1.0000
  Mg  Mg3284    1.0  0.00000  0.26667  0.85000  1.0000
  Mg  Mg3285    1.0  0.10000  0.20000  0.80000  1.0000
  Mg  Mg3286    1.0  0.15000  0.25000  0.80000  1.0000
  Mg  Mg3287    1.0  0.15000  0.21667  0.85000  1.0000
  Mg  Mg3288    1.0  0.10000  0.26667  0.85000  1.0000
  Mg  Mg3289    1.0  0.20000  0.20000  0.80000  1.0000
  Mg  Mg3290    1.0  0.25000  0.25000  0.80000  1.0000
  Mg  Mg3291    1.0  0.25000  0.21667  0.85000  1.0000
  Mg  Mg3292    1.0  0.20000  0.26667  0.85000  1.0000
  Mg  Mg3293    1.0  0.30000  0.20000  0.80000  1.0000
  Mg  Mg3294    1.0  0.35000  0.25000  0.80000  1.0000
  Mg  Mg3295    1.0  0.35000  0.21667  0.85000  1.0000
  Mg  Mg3296    1.0  0.30000  0.26667  0.85000  1.0000
  Mg  Mg3297    1.0  0.40000  0.20000  0.80000  1.0000
  Mg  Mg3298    1.0  0.45000  0.25000  0.80000  1.0000
  Mg  Mg3299    1.0  0.45000  0.21667  0.85000  1.0000
  Mg  Mg3300    1.0  0.40000  0.26667  0.85000  1.0000
  Mg  Mg3301    1.0  0.50000  0.20000  0.80000  1.0000
  Mg  Mg3302    1.0  0.55000  0.25000  0.80000  1.0000
  Mg  Mg3303    1.0  0.55000  0.21667  0.85000  1.0000
  Mg  Mg3304    1.0  0.50000  0.26667  0.85000  1.0000
  Mg  Mg3305    1.0  0.60000  0.20000  0.80000  1.0000
  Mg  Mg3306    1.0  0.65000  0.25000  0.80000  1.0000
  Mg  Mg3307    1.0  0.65000  0.21667  0.85000  1.0000
  Mg  Mg3308    1.0  0.60000  0.26667  0.85000  1.0000
  Mg  Mg3309    1.0  0.70000  0.20000  0.80000  1.0000
  Mg  Mg3310    1.0  0.75000  0.25000  0.80000  1.0000
  Mg  Mg3311    1.0  0.75000  0.21667  0.85000  1.0000
  Mg  Mg3312    1.0  0.70000  0.26667  0.85000  1.0000
  Mg  Mg3313    1.0  0.80000  0.20000  0.80000  1.0000
  Mg  Mg3314    1.0  0.85000  0.25000  0.80000  1.0000
  Mg  Mg3315    1.0  0.85000  0.21667  0.85000  1.0000
  Mg  Mg3316    1.0  0.80000  0.26667  0.85000  1.0000
  Mg  Mg3317    1.0  0.90000  0.20000  0.80000  1.0000
  Mg  Mg3318    1.0  0.95000  0.25000  0.80000  1.0000
  Mg  Mg3319    1.0  0.95000  0.21667  0.85000  1.0000
  Mg  Mg3320    1.0  0.90000  0.26667  0.85000  1.0000
  Mg  Mg3321    1.0  0.00000  0.30000  0.80000  1.0000
  Mg  Mg3322    1.0  0.05000  0.35000  0.80000  1.0000
  Mg  Mg3323    1.0  0.05000  0.31667  0.85000  1.0000
  Mg  Mg3324    1.0  0.00000  0.36667  0.85000  1.0000
  Mg  Mg3325    1.0  0.10000  0.30000  0.80000  1.0000
  Mg  Mg3326    1.0  0.15000  0.35000  0.80000  1.0000
  Mg  Mg3327    1.0  0.15000  0.31667  0.85000  1.0000
  Mg  Mg3328    1.0  0.10000  0.36667  0.85000  1.0000
  Mg  Mg3329    1.0  0.20000  0.30000  0.80000  1.0000
  Mg  Mg3330    1.0  0.25000  0.35000  0.80000  1.0000
  Mg  Mg3331    1.0  0.25000  0.31667  0.85000  1.0000
  Mg  Mg3332    1.0  0.20000  0.36667  0.85000  1.0000
  Mg  Mg3333    1.0  0.30000  0.30000  0.80000  1.0000
  Mg  Mg3334    1.0  0.35000  0.35000  0.80000  1.0000
  Mg  Mg3335    1.0  0.35000  0.31667  0.85000  1.0000
  Mg  Mg3336    1.0  0.30000  0.36667  0.85000  1.0000
  Mg  Mg3337    1.0  0.40000  0.30000  0.80000  1.0000
  Mg  Mg3338    1.0  0.45000  0.35000  0.80000  1.0000
  Mg  Mg3339    1.0  0.45000  0.31667  0.85000  1.0000
  Mg  Mg3340    1.0  0.40000  0.36667  0.85000  1.0000
  Mg  Mg3341    1.0  0.50000  0.30000  0.80000  1.0000
  Mg  Mg3342    1.0  0.55000  0.35000  0.80000  1.0000
  Mg  Mg3343    1.0  0.55000  0.31667  0.85000  1.0000
  Mg  Mg3344    1.0  0.50000  0.36667  0.85000  1.0000
  Mg  Mg3345    1.0  0.60000  0.30000  0.80000  1.0000
  Mg  Mg3346    1.0  0.65000  0.35000  0.80000  1.0000
  Mg  Mg3347    1.0  0.65000  0.31667  0.85000  1.0000
  Mg  Mg3348    1.0  0.60000  0.36667  0.85000  1.0000
  Mg  Mg3349    1.0  0.70000  0.30000  0.80000  1.0000
  Mg  Mg3350    1.0  0.75000  0.35000  0.80000  1.0000
  Mg  Mg3351    1.0  0.75000  0.31667  0.85000  1.0000
  Mg  Mg3352    1.0  0.70000  0.36667  0.85000  1.0000
  Mg  Mg3353    1.0  0.80000  0.30000  0.80000  1.0000
  Mg  Mg3354    1.0  0.85000  0.35000  0.80000  1.0000
  Mg  Mg3355    1.0  0.85000  0.31667  0.85000  1.0000
  Mg  Mg3356    1.0  0.80000  0.36667  0.85000  1.0000
  Mg  Mg3357    1.0  0.90000  0.30000  0.80000  1.0000
  Mg  Mg3358    1.0  0.95000  0.35000  0.80000  1.0000
  Mg  Mg3359    1.0  0.95000  0.31667  0.85000  1.0000
  Mg  Mg3360    1.0  0.90000  0.36667  0.85000  1.0000
  Mg  Mg3361    1.0  0.00000  0.40000  0.80000  1.0000
  Mg  Mg3362    1.0  0.05000  0.45000  0.80000  1.0000
  Mg  Mg3363    1.0  0.05000  0.41667  0.85000  1.0000
  Mg  Mg3364    1.0  0.00000  0.46667  0.85000  1.0000
  Mg  Mg3365    1.0  0.10000  0.40000  0.80000  1.0000
  Mg  Mg3366    1.0  0.15000  0.45000  0.80000  1.0000
  Mg  Mg3367    1.0  0.15000  0.41667  0.85000  1.0000
  Mg  Mg3368    1.0  0.10000  0.46667  0.85000  1.0000
  Mg  Mg3369    1.0  0.20000  0.40000  0.80000  1.0000
  Mg  Mg3370    1.0  0.25000  0.45000  0.80000  1.0000
  Mg  Mg3371    1.0  0.25000  0.41667  0.85000  1.0000
  Mg  Mg3372    1.0  0.20000  0.46667  0.85000  1.0000
  Mg  Mg3373    1.0  0.30000  0.40000  0.80000  1.0000
  Mg  Mg3374    1.0  0.35000  0.45000  0.80000  1.0000
  Mg  Mg3375    1.0  0.35000  0.41667  0.85000  1.0000
  Mg  Mg3376    1.0  0.30000  0.46667  0.85000  1.0000
  Mg  Mg3377    1.0  0.40000  0.40000  0.80000  1.0000
  Mg  Mg3378    1.0  0.45000  0.45000  0.80000  1.0000
  Mg  Mg3379    1.0  0.45000  0.41667  0.85000  1.0000
  Mg  Mg3380    1.0  0.40000  0.46667  0.85000  1.0000
  Mg  Mg3381    1.0  0.50000  0.40000  0.80000  1.0000
  Mg  Mg3382    1.0  0.55000  0.45000  0.80000  1.0000
  Mg  Mg3383    1.0  0.55000  0.41667  0.85000  1.0000
  Mg  Mg3384    1.0  0.50000  0.46667  0.85000  1.0000
  Mg  Mg3385    1.0  0.60000  0.40000  0.80000  1.0000
  Mg  Mg3386    1.0  0.65000  0.45000  0.80000  1.0000
  Mg  Mg3387    1.0  0.65000  0.41667  0.85000  1.0000
  Mg  Mg3388    1.0  0.60000  0.46667  0.85000  1.0000
  Mg  Mg3389    1.0  0.70000  0.40000  0.80000  1.0000
  Mg  Mg3390    1.0  0.75000  0.45000  0.80000  1.0000
  Mg  Mg3391    1.0  0.75000  0.41667  0.85000  1.0000
  Mg  Mg3392    1.0  0.70000  0.46667  0.85000  1.0000
  Mg  Mg3393    1.0  0.80000  0.40000  0.80000  1.0000
  Mg  Mg3394    1.0  0.85000  0.45000  0.80000  1.0000
  Mg  Mg3395    1.0  0.85000  0.41667  0.85000  1.0000
  Mg  Mg3396    1.0  0.80000  0.46667  0.85000  1.0000
  Mg  Mg3397    1.0  0.90000  0.40000  0.80000  1.0000
  Mg  Mg3398    1.0  0.95000  0.45000  0.80000  1.0000
  Mg  Mg3399    1.0  0.95000  0.41667  0.85000  1.0000
  Mg  Mg3400    1.0  0.90000  0.46667  0.85000  1.0000
  Mg  Mg3401    1.0  0.00000  0.50000  0.80000  1.0000
  Mg  Mg3402    1.0  0.05000  0.55000  0.80000  1.0000
  Mg  Mg3403    1.0  0.05000  0.51667  0.85000  1.0000
  Mg  Mg3404    1.0  0.00000  0.56667  0.85000  1.0000
  Mg  Mg3405    1.0  0.10000  0.50000  0.80000  1.0000
  Mg  Mg3406    1.0  0.15000  0.55000  0.80000  1.0000
  Mg  Mg3407    1.0  0.15000  0.51667  0.85000  1.0000
  Mg  Mg3408    1.0  0.10000  0.56667  0.85000  1.0000
  Mg  Mg3409    1.0  0.20000  0.50000  0.80000  1.0000
  Mg  Mg3410    1.0  0.25000  0.55000  0.80000  1.0000
  Mg  Mg3411    1.0  0.25000  0.51667  0.85000  1.0000
  Mg  Mg3412    1.0  0.20000  0.56667  0.85000  1.0000
  Mg  Mg3413    1.0  0.30000  0.50000  0.80000  1.0000
  Mg  Mg3414    1.0  0.35000  0.55000  0.80000  1.0000
  Mg  Mg3415    1.0  0.35000  0.51667  0.85000  1.0000
  Mg  Mg3416    1.0  0.30000  0.56667  0.85000  1.0000
  Mg  Mg3417    1.0  0.40000  0.50000  0.80000  1.0000
  Mg  Mg3418    1.0  0.45000  0.55000  0.80000  1.0000
  Mg  Mg3419    1.0  0.45000  0.51667  0.85000  1.0000
  Mg  Mg3420    1.0  0.40000  0.56667  0.85000  1.0000
  Mg  Mg3421    1.0  0.50000  0.50000  0.80000  1.0000
  Mg  Mg3422    1.0  0.55000  0.55000  0.80000  1.0000
  Mg  Mg3423    1.0  0.55000  0.51667  0.85000  1.0000
  Mg  Mg3424    1.0  0.50000  0.56667  0.85000  1.0000
  Mg  Mg3425    1.0  0.60000  0.50000  0.80000  1.0000
  Mg  Mg3426    1.0  0.65000  0.55000  0.80000  1.0000
  Mg  Mg3427    1.0  0.65000  0.51667  0.85000  1.0000
  Mg  Mg3428    1.0  0.60000  0.56667  0.85000  1.0000
  Mg  Mg3429    1.0  0.70000  0.50000  0.80000  1.0000
  Mg  Mg3430    1.0  0.75000  0.55000  0.80000  1.0000
  Mg  Mg3431    1.0  0.75000  0.51667  0.85000  1.0000
  Mg  Mg3432    1.0  0.70000  0.56667  0.85000  1.0000
  Mg  Mg3433    1.0  0.80000  0.50000  0.80000  1.0000
  Mg  Mg3434    1.0  0.85000  0.55000  0.80000  1.0000
  Mg  Mg3435    1.0  0.85000  0.51667  0.85000  1.0000
  Mg  Mg3436    1.0  0.80000  0.56667  0.85000  1.0000
  Mg  Mg3437    1.0  0.90000  0.50000  0.80000  1.0000
  Mg  Mg3438    1.0  0.95000  0.55000  0.80000  1.0000
  Mg  Mg3439    1.0  0.95000  0.51667  0.85000  1.0000
  Mg  Mg3440    1.0  0.90000  0.56667  0.85000  1.0000
  Mg  Mg3441    1.0  0.00000  0.60000  0.80000  1.0000
  Mg  Mg3442    1.0  0.05000  0.65000  0.80000  1.0000
  Mg  Mg3443    1.0  0.05000  0.61667  0.85000  1.0000
  Mg  Mg3444    1.0  0.00000  0.66667  0.85000  1.0000
  Mg  Mg3445    1.0  0.10000  0.60000  0.80000  1.0000
  Mg  Mg3446    1.0  0.15000  0.65000  0.80000  1.0000
  Mg  Mg3447    1.0  0.15000  0.61667  0.85000  1.0000
  Mg  Mg3448    1.0  0.10000  0.66667  0.85000  1.0000
  Mg  Mg3449    1.0  0.20000  0.60000  0.80000  1.0000
  Mg  Mg3450    1.0  0.25000  0.65000  0.80000  1.0000
  Mg  Mg3451    1.0  0.25000  0.61667  0.85000  1.0000
  Mg  Mg3452    1.0  0.20000  0.66667  0.85000  1.0000
  Mg  Mg3453    1.0  0.30000  0.60000  0.80000  1.0000
  Mg  Mg3454    1.0  0.35000  0.65000  0.80000  1.0000
  Mg  Mg3455    1.0  0.35000  0.61667  0.85000  1.0000
  Mg  Mg3456    1.0  0.30000  0.66667  0.85000  1.0000
  Mg  Mg3457    1.0  0.40000  0.60000  0.80000  1.0000
  Mg  Mg3458    1.0  0.45000  0.65000  0.80000  1.0000
  Mg  Mg3459    1.0  0.45000  0.61667  0.85000  1.0000
  Mg  Mg3460    1.0  0.40000  0.66667  0.85000  1.0000
  Mg  Mg3461    1.0  0.50000  0.60000  0.80000  1.0000
  Mg  Mg3462    1.0  0.55000  0.65000  0.80000  1.0000
  Mg  Mg3463    1.0  0.55000  0.61667  0.85000  1.0000
  Mg  Mg3464    1.0  0.50000  0.66667  0.85000  1.0000
  Mg  Mg3465    1.0  0.60000  0.60000  0.80000  1.0000
  Mg  Mg3466    1.0  0.65000  0.65000  0.80000  1.0000
  Mg  Mg3467    1.0  0.65000  0.61667  0.85000  1.0000
  Mg  Mg3468    1.0  0.60000  0.66667  0.85000  1.0000
  Mg  Mg3469    1.0  0.70000  0.60000  0.80000  1.0000
  Mg  Mg3470    1.0  0.75000  0.65000  0.80000  1.0000
  Mg  Mg3471    1.0  0.75000  0.61667  0.85000  1.0000
  Mg  Mg3472    1.0  0.70000  0.66667  0.85000  1.0000
  Mg  Mg3473    1.0  0.80000  0.60000  0.80000  1.0000
  Mg  Mg3474    1.0  0.85000  0.65000  0.80000  1.0000
  Mg  Mg3475    1.0  0.85000  0.61667  0.85000  1.0000
  Mg  Mg3476    1.0  0.80000  0.66667  0.85000  1.0000
  Mg  Mg3477    1.0  0.90000  0.60000  0.80000  1.0000
  Mg  Mg3478    1.0  0.95000  0.65000  0.80000  1.0000
  Mg  Mg3479    1.0  0.95000  0.61667  0.85000  1.0000
  Mg  Mg3480    1.0  0.90000  0.66667  0.85000  1.0000
  Mg  Mg3481    1.0  0.00000  0.70000  0.80000  1.0000
  Mg  Mg3482    1.0  0.05000  0.75000  0.80000  1.0000
  Mg  Mg3483    1.0  0.05000  0.71667  0.85000  1.0000
  Mg  Mg3484    1.0  0.00000  0.76667  0.85000  1.0000
  Mg  Mg3485    1.0  0.10000  0.70000  0.80000  1.0000
  Mg  Mg3486    1.0  0.15000  0.75000  0.80000  1.0000
  Mg  Mg3487    1.0  0.15000  0.71667  0.85000  1.0000
  Mg  Mg3488    1.0  0.10000  0.76667  0.85000  1.0000
  Mg  Mg3489    1.0  0.20000  0.70000  0.80000  1.0000
  Mg  Mg3490    1.0  0.25000  0.75000  0.80000  1.0000
  Mg  Mg3491    1.0  0.25000  0.71667  0.85000  1.0000
  Mg  Mg3492    1.0  0.20000  0.76667  0.85000  1.0000
  Mg  Mg3493    1.0  0.30000  0.70000  0.80000  1.0000
  Mg  Mg3494    1.0  0.35000  0.75000  0.80000  1.0000
  Mg  Mg3495    1.0  0.35000  0.71667  0.85000  1.0000
  Mg  Mg3496    1.0  0.30000  0.76667  0.85000  1.0000
  Mg  Mg3497    1.0  0.40000  0.70000  0.80000  1.0000
  Mg  Mg3498    1.0  0.45000  0.75000  0.80000  1.0000
  Mg  Mg3499    1.0  0.45000  0.71667  0.85000  1.0000
  Mg  Mg3500    1.0  0.40000  0.76667  0.85000  1.0000
  Mg  Mg3501    1.0  0.50000  0.70000  0.80000  1.0000
  Mg  Mg3502    1.0  0.55000  0.75000  0.80000  1.0000
  Mg  Mg3503    1.0  0.55000  0.71667  0.85000  1.0000
  Mg  Mg3504    1.0  0.50000  0.76667  0.85000  1.0000
  Mg  Mg3505    1.0  0.60000  0.70000  0.80000  1.0000
  Mg  Mg3506    1.0  0.65000  0.75000  0.80000  1.0000
  Mg  Mg3507    1.0  0.65000  0.71667  0.85000  1.0000
  Mg  Mg3508    1.0  0.60000  0.76667  0.85000  1.0000
  Mg  Mg3509    1.0  0.70000  0.70000  0.80000  1.0000
  Mg  Mg3510    1.0  0.75000  0.75000  0.80000  1.0000
  Mg  Mg3511    1.0  0.75000  0.71667  0.85000  1.0000
  Mg  Mg3512    1.0  0.70000  0.76667  0.85000  1.0000
  Mg  Mg3513    1.0  0.80000  0.70000  0.80000  1.0000
  Mg  Mg3514    1.0  0.85000  0.75000  0.80000  1.0000
  Mg  Mg3515    1.0  0.85000  0.71667  0.85000  1.0000
  Mg  Mg3516    1.0  0.80000  0.76667  0.85000  1.0000
  Mg  Mg3517    1.0  0.90000  0.70000  0.80000  1.0000
  Mg  Mg3518    1.0  0.95000  0.75000  0.80000  1.0000
  Mg  Mg3519    1.0  0.95000  0.71667  0.85000  1.0000
  Mg  Mg3520    1.0  0.90000  0.76667  0.85000  1.0000
  Mg  Mg3521    1.0  0.00000  0.80000  0.80000  1.0000
  Mg  Mg3522    1.0  0.05000  0.85000  0.80000  1.0000
  Mg  Mg3523    1.0  0.05000  0.81667  0.85000  1.0000
  Mg  Mg3524    1.0  0.00000  0.86667  0.85000  1.0000
  Mg  Mg3525    1.0  0.10000  0.80000  0.80000  1.0000
  Mg  Mg3526    1.0  0.15000  0.85000  0.80000  1.0000
  Mg  Mg3527    1.0  0.15000  0.81667  0.85000  1.0000
  Mg  Mg3528    1.0  0.10000  0.86667  0.85000  1.0000
  Mg  Mg3529    1.0  0.20000  0.80000  0.80000  1.0000
  Mg  Mg3530    1.0  0.25000  0.85000  0.80000  1.0000
  Mg  Mg3531    1.0  0.25000  0.81667  0.85000  1.0000
  Mg  Mg3532    1.0  0.20000  0.86667  0.85000  1.0000
  Mg  Mg3533    1.0  0.30000  0.80000  0.80000  1.0000
  Mg  Mg3534    1.0  0.35000  0.85000  0.80000  1.0000
  Mg  Mg3535    1.0  0.35000  0.81667  0.85000  1.0000
  Mg  Mg3536    1.0  0.30000  0.86667  0.85000  1.0000
  Mg  Mg3537    1.0  0.40000  0.80000  0.80000  1.0000
  Mg  Mg3538    1.0  0.45000  0.85000  0.80000  1.0000
  Mg  Mg3539    1.0  0.45000  0.81667  0.85000  1.0000
  Mg  Mg3540    1.0  0.40000  0.86667  0.85000  1.0000
  Mg  Mg3541    1.0  0.50000  0.80000  0.80000  1.0000
  Mg  Mg3542    1.0  0.55000  0.85000  0.80000  1.0000
  Mg  Mg3543    1.0  0.55000  0.81667  0.85000  1.0000
  Mg  Mg3544    1.0  0.50000  0.86667  0.85000  1.0000
  Mg  Mg3545    1.0  0.60000  0.80000  0.80000  1.0000
  Mg  Mg3546    1.0  0.65000  0.85000  0.80000  1.0000
  Mg  Mg3547    1.0  0.65000  0.81667  0.85000  1.0000
  Mg  Mg3548    1.0  0.60000  0.86667  0.85000  1.0000
  Mg  Mg3549    1.0  0.70000  0.80000  0.80000  1.0000
  Mg  Mg3550    1.0  0.75000  0.85000  0.80000  1.0000
  Mg  Mg3551    1.0  0.75000  0.81667  0.85000  1.0000
  Mg  Mg3552    1.0  0.70000  0.86667  0.85000  1.0000
  Mg  Mg3553    1.0  0.80000  0.80000  0.80000  1.0000
  Mg  Mg3554    1.0  0.85000  0.85000  0.80000  1.0000
  Mg  Mg3555    1.0  0.85000  0.81667  0.85000  1.0000
  Mg  Mg3556    1.0  0.80000  0.86667  0.85000  1.0000
  Mg  Mg3557    1.0  0.90000  0.80000  0.80000  1.0000
  Mg  Mg3558    1.0  0.95000  0.85000  0.80000  1.0000
  Mg  Mg3559    1.0  0.95000  0.81667  0.85000  1.0000
  Mg  Mg3560    1.0  0.90000  0.86667  0.85000  1.0000
  Mg  Mg3561    1.0  0.00000  0.90000  0.80000  1.0000
  Mg  Mg3562    1.0  0.05000  0.95000  0.80000  1.0000
  Mg  Mg3563    1.0  0.05000  0.91667  0.85000  1.0000
  Mg  Mg3564    1.0  0.00000  0.96667  0.85000  1.0000
  Mg  Mg3565    1.0  0.10000  0.90000  0.80000  1.0000
  Mg  Mg3566    1.0  0.15000  0.95000  0.80000  1.0000
  Mg  Mg3567    1.0  0.15000  0.91667  0.85000  1.0000
  Mg  Mg3568    1.0  0.10000  0.96667  0.85000  1.0000
  Mg  Mg3569    1.0  0.20000  0.90000  0.80000  1.0000
  Mg  Mg3570    1.0  0.25000  0.95000  0.80000  1.0000
  Mg  Mg3571    1.0  0.25000  0.91667  0.85000  1.0000
  Mg  Mg3572    1.0  0.20000  0.96667  0.85000  1.0000
  Mg  Mg3573    1.0  0.30000  0.90000  0.80000  1.0000
  Mg  Mg3574    1.0  0.35000  0.95000  0.80000  1.0000
  Mg  Mg3575    1.0  0.35000  0.91667  0.85000  1.0000
  Mg  Mg3576    1.0  0.30000  0.96667  0.85000  1.0000
  Mg  Mg3577    1.0  0.40000  0.90000  0.80000  1.0000
  Mg  Mg3578    1.0  0.45000  0.95000  0.80000  1.0000
  Mg  Mg3579    1.0  0.45000  0.91667  0.85000  1.0000
  Mg  Mg3580    1.0  0.40000  0.96667  0.85000  1.0000
  Mg  Mg3581    1.0  0.50000  0.90000  0.80000  1.0000
  Mg  Mg3582    1.0  0.55000  0.95000  0.80000  1.0000
  Mg  Mg3583    1.0  0.55000  0.91667  0.85000  1.0000
  Mg  Mg3584    1.0  0.50000  0.96667  0.85000  1.0000
  Mg  Mg3585    1.0  0.60000  0.90000  0.80000  1.0000
  Mg  Mg3586    1.0  0.65000  0.95000  0.80000  1.0000
  Mg  Mg3587    1.0  0.65000  0.91667  0.85000  1.0000
  Mg  Mg3588    1.0  0.60000  0.96667  0.85000  1.0000
  Mg  Mg3589    1.0  0.70000  0.90000  0.80000  1.0000
  Mg  Mg3590    1.0  0.75000  0.95000  0.80000  1.0000
  Mg  Mg3591    1.0  0.75000  0.91667  0.85000  1.0000
  Mg  Mg3592    1.0  0.70000  0.96667  0.85000  1.0000
  Mg  Mg3593    1.0  0.80000  0.90000  0.80000  1.0000
  Mg  Mg3594    1.0  0.85000  0.95000  0.80000  1.0000
  Mg  Mg3595    1.0  0.85000  0.91667  0.85000  1.0000
  Mg  Mg3596    1.0  0.80000  0.96667  0.85000  1.0000
  Mg  Mg3597    1.0  0.90000  0.90000  0.80000  1.0000
  Mg  Mg3598    1.0  0.95000  0.95000  0.80000  1.0000
  Mg  Mg3599    1.0  0.95000  0.91667  0.85000  1.0000
  Mg  Mg3600    1.0  0.90000  0.96667  0.85000  1.0000
  Mg  Mg3601    1.0  0.00000  0.00000  0.90000  1.0000
  Mg  Mg3602    1.0  0.05000  0.05000  0.90000  1.0000
  Mg  Mg3603    1.0  0.05000  0.01667  0.95000  1.0000
  Mg  Mg3604    1.0  0.00000  0.06667  0.95000  1.0000
  Mg  Mg3605    1.0  0.10000  0.00000  0.90000  1.0000
  Mg  Mg3606    1.0  0.15000  0.05000  0.90000  1.0000
  Mg  Mg3607    1.0  0.15000  0.01667  0.95000  1.0000
  Mg  Mg3608    1.0  0.10000  0.06667  0.95000  1.0000
  Mg  Mg3609    1.0  0.20000  0.00000  0.90000  1.0000
  Mg  Mg3610    1.0  0.25000  0.05000  0.90000  1.0000
  Mg  Mg3611    1.0  0.25000  0.01667  0.95000  1.0000
  Mg  Mg3612    1.0  0.20000  0.06667  0.95000  1.0000
  Mg  Mg3613    1.0  0.30000  0.00000  0.90000  1.0000
  Mg  Mg3614    1.0  0.35000  0.05000  0.90000  1.0000
  Mg  Mg3615    1.0  0.35000  0.01667  0.95000  1.0000
  Mg  Mg3616    1.0  0.30000  0.06667  0.95000  1.0000
  Mg  Mg3617    1.0  0.40000  0.00000  0.90000  1.0000
  Mg  Mg3618    1.0  0.45000  0.05000  0.90000  1.0000
  Mg  Mg3619    1.0  0.45000  0.01667  0.95000  1.0000
  Mg  Mg3620    1.0  0.40000  0.06667  0.95000  1.0000
  Mg  Mg3621    1.0  0.50000  0.00000  0.90000  1.0000
  Mg  Mg3622    1.0  0.55000  0.05000  0.90000  1.0000
  Mg  Mg3623    1.0  0.55000  0.01667  0.95000  1.0000
  Mg  Mg3624    1.0  0.50000  0.06667  0.95000  1.0000
  Mg  Mg3625    1.0  0.60000  0.00000  0.90000  1.0000
  Mg  Mg3626    1.0  0.65000  0.05000  0.90000  1.0000
  Mg  Mg3627    1.0  0.65000  0.01667  0.95000  1.0000
  Mg  Mg3628    1.0  0.60000  0.06667  0.95000  1.0000
  Mg  Mg3629    1.0  0.70000  0.00000  0.90000  1.0000
  Mg  Mg3630    1.0  0.75000  0.05000  0.90000  1.0000
  Mg  Mg3631    1.0  0.75000  0.01667  0.95000  1.0000
  Mg  Mg3632    1.0  0.70000  0.06667  0.95000  1.0000
  Mg  Mg3633    1.0  0.80000  0.00000  0.90000  1.0000
  Mg  Mg3634    1.0  0.85000  0.05000  0.90000  1.0000
  Mg  Mg3635    1.0  0.85000  0.01667  0.95000  1.0000
  Mg  Mg3636    1.0  0.80000  0.06667  0.95000  1.0000
  Mg  Mg3637    1.0  0.90000  0.00000  0.90000  1.0000
  Mg  Mg3638    1.0  0.95000  0.05000  0.90000  1.0000
  Mg  Mg3639    1.0  0.95000  0.01667  0.95000  1.0000
  Mg  Mg3640    1.0  0.90000  0.06667  0.95000  1.0000
  Mg  Mg3641    1.0  0.00000  0.10000  0.90000  1.0000
  Mg  Mg3642    1.0  0.05000  0.15000  0.90000  1.0000
  Mg  Mg3643    1.0  0.05000  0.11667  0.95000  1.0000
  Mg  Mg3644    1.0  0.00000  0.16667  0.95000  1.0000
  Mg  Mg3645    1.0  0.10000  0.10000  0.90000  1.0000
  Mg  Mg3646    1.0  0.15000  0.15000  0.90000  1.0000
  Mg  Mg3647    1.0  0.15000  0.11667  0.95000  1.0000
  Mg  Mg3648    1.0  0.10000  0.16667  0.95000  1.0000
  Mg  Mg3649    1.0  0.20000  0.10000  0.90000  1.0000
  Mg  Mg3650    1.0  0.25000  0.15000  0.90000  1.0000
  Mg  Mg3651    1.0  0.25000  0.11667  0.95000  1.0000
  Mg  Mg3652    1.0  0.20000  0.16667  0.95000  1.0000
  Mg  Mg3653    1.0  0.30000  0.10000  0.90000  1.0000
  Mg  Mg3654    1.0  0.35000  0.15000  0.90000  1.0000
  Mg  Mg3655    1.0  0.35000  0.11667  0.95000  1.0000
  Mg  Mg3656    1.0  0.30000  0.16667  0.95000  1.0000
  Mg  Mg3657    1.0  0.40000  0.10000  0.90000  1.0000
  Mg  Mg3658    1.0  0.45000  0.15000  0.90000  1.0000
  Mg  Mg3659    1.0  0.45000  0.11667  0.95000  1.0000
  Mg  Mg3660    1.0  0.40000  0.16667  0.95000  1.0000
  Mg  Mg3661    1.0  0.50000  0.10000  0.90000  1.0000
  Mg  Mg3662    1.0  0.55000  0.15000  0.90000  1.0000
  Mg  Mg3663    1.0  0.55000  0.11667  0.95000  1.0000
  Mg  Mg3664    1.0  0.50000  0.16667  0.95000  1.0000
  Mg  Mg3665    1.0  0.60000  0.10000  0.90000  1.0000
  Mg  Mg3666    1.0  0.65000  0.15000  0.90000  1.0000
  Mg  Mg3667    1.0  0.65000  0.11667  0.95000  1.0000
  Mg  Mg3668    1.0  0.60000  0.16667  0.95000  1.0000
  Mg  Mg3669    1.0  0.70000  0.10000  0.90000  1.0000
  Mg  Mg3670    1.0  0.75000  0.15000  0.90000  1.0000
  Mg  Mg3671    1.0  0.75000  0.11667  0.95000  1.0000
  Mg  Mg3672    1.0  0.70000  0.16667  0.95000  1.0000
  Mg  Mg3673    1.0  0.80000  0.10000  0.90000  1.0000
  Mg  Mg3674    1.0  0.85000  0.15000  0.90000  1.0000
  Mg  Mg3675    1.0  0.85000  0.11667  0.95000  1.0000
  Mg  Mg3676    1.0  0.80000  0.16667  0.95000  1.0000
  Mg  Mg3677    1.0  0.90000  0.10000  0.90000  1.0000
  Mg  Mg3678    1.0  0.95000  0.15000  0.90000  1.0000
  Mg  Mg3679    1.0  0.95000  0.11667  0.95000  1.0000
  Mg  Mg3680    1.0  0.90000  0.16667  0.95000  1.0000
  Mg  Mg3681    1.0  0.00000  0.20000  0.90000  1.0000
  Mg  Mg3682    1.0  0.05000  0.25000  0.90000  1.0000
  Mg  Mg3683    1.0  0.05000  0.21667  0.95000  1.0000
  Mg  Mg3684    1.0  0.00000  0.26667  0.95000  1.0000
  Mg  Mg3685    1.0  0.10000  0.20000  0.90000  1.0000
  Mg  Mg3686    1.0  0.15000  0.25000  0.90000  1.0000
  Mg  Mg3687    1.0  0.15000  0.21667  0.95000  1.0000
  Mg  Mg3688    1.0  0.10000  0.26667  0.95000  1.0000
  Mg  Mg3689    1.0  0.20000  0.20000  0.90000  1.0000
  Mg  Mg3690    1.0  0.25000  0.25000  0.90000  1.0000
  Mg  Mg3691    1.0  0.25000  0.21667  0.95000  1.0000
  Mg  Mg3692    1.0  0.20000  0.26667  0.95000  1.0000
  Mg  Mg3693    1.0  0.30000  0.20000  0.90000  1.0000
  Mg  Mg3694    1.0  0.35000  0.25000  0.90000  1.0000
  Mg  Mg3695    1.0  0.35000  0.21667  0.95000  1.0000
  Mg  Mg3696    1.0  0.30000  0.26667  0.95000  1.0000
  Mg  Mg3697    1.0  0.40000  0.20000  0.90000  1.0000
  Mg  Mg3698    1.0  0.45000  0.25000  0.90000  1.0000
  Mg  Mg3699    1.0  0.45000  0.21667  0.95000  1.0000
  Mg  Mg3700    1.0  0.40000  0.26667  0.95000  1.0000
  Mg  Mg3701    1.0  0.50000  0.20000  0.90000  1.0000
  Mg  Mg3702    1.0  0.55000  0.25000  0.90000  1.0000
  Mg  Mg3703    1.0  0.55000  0.21667  0.95000  1.0000
  Mg  Mg3704    1.0  0.50000  0.26667  0.95000  1.0000
  Mg  Mg3705    1.0  0.60000  0.20000  0.90000  1.0000
  Mg  Mg3706    1.0  0.65000  0.25000  0.90000  1.0000
  Mg  Mg3707    1.0  0.65000  0.21667  0.95000  1.0000
  Mg  Mg3708    1.0  0.60000  0.26667  0.95000  1.0000
  Mg  Mg3709    1.0  0.70000  0.20000  0.90000  1.0000
  Mg  Mg3710    1.0  0.75000  0.25000  0.90000  1.0000
  Mg  Mg3711    1.0  0.75000  0.21667  0.95000  1.0000
  Mg  Mg3712    1.0  0.70000  0.26667  0.95000  1.0000
  Mg  Mg3713    1.0  0.80000  0.20000  0.90000  1.0000
  Mg  Mg3714    1.0  0.85000  0.25000  0.90000  1.0000
  Mg  Mg3715    1.0  0.85000  0.21667  0.95000  1.0000
  Mg  Mg3716    1.0  0.80000  0.26667  0.95000  1.0000
  Mg  Mg3717    1.0  0.90000  0.20000  0.90000  1.0000
  Mg  Mg3718    1.0  0.95000  0.25000  0.90000  1.0000
  Mg  Mg3719    1.0  0.95000  0.21667  0.95000  1.0000
  Mg  Mg3720    1.0  0.90000  0.26667  0.95000  1.0000
  Mg  Mg3721    1.0  0.00000  0.30000  0.90000  1.0000
  Mg  Mg3722    1.0  0.05000  0.35000  0.90000  1.0000
  Mg  Mg3723    1.0  0.05000  0.31667  0.95000  1.0000
  Mg  Mg3724    1.0  0.00000  0.36667  0.95000  1.0000
  Mg  Mg3725    1.0  0.10000  0.30000  0.90000  1.0000
  Mg  Mg3726    1.0  0.15000  0.35000  0.90000  1.0000
  Mg  Mg3727    1.0  0.15000  0.31667  0.95000  1.0000
  Mg  Mg3728    1.0  0.10000  0.36667  0.95000  1.0000
  Mg  Mg3729    1.0  0.20000  0.30000  0.90000  1.0000
  Mg  Mg3730    1.0  0.25000  0.35000  0.90000  1.0000
  Mg  Mg3731    1.0  0.25000  0.31667  0.95000  1.0000
  Mg  Mg3732    1.0  0.20000  0.36667  0.95000  1.0000
  Mg  Mg3733    1.0  0.30000  0.30000  0.90000  1.0000
  Mg  Mg3734    1.0  0.35000  0.35000  0.90000  1.0000
  Mg  Mg3735    1.0  0.35000  0.31667  0.95000  1.0000
  Mg  Mg3736    1.0  0.30000  0.36667  0.95000  1.0000
  Mg  Mg3737    1.0  0.40000  0.30000  0.90000  1.0000
  Mg  Mg3738    1.0  0.45000  0.35000  0.90000  1.0000
  Mg  Mg3739    1.0  0.45000  0.31667  0.95000  1.0000
  Mg  Mg3740    1.0  0.40000  0.36667  0.95000  1.0000
  Mg  Mg3741    1.0  0.50000  0.30000  0.90000  1.0000
  Mg  Mg3742    1.0  0.55000  0.35000  0.90000  1.0000
  Mg  Mg3743    1.0  0.55000  0.31667  0.95000  1.0000
  Mg  Mg3744    1.0  0.50000  0.36667  0.95000  1.0000
  Mg  Mg3745    1.0  0.60000  0.30000  0.90000  1.0000
  Mg  Mg3746    1.0  0.65000  0.35000  0.90000  1.0000
  Mg  Mg3747    1.0  0.65000  0.31667  0.95000  1.0000
  Mg  Mg3748    1.0  0.60000  0.36667  0.95000  1.0000
  Mg  Mg3749    1.0  0.70000  0.30000  0.90000  1.0000
  Mg  Mg3750    1.0  0.75000  0.35000  0.90000  1.0000
  Mg  Mg3751    1.0  0.75000  0.31667  0.95000  1.0000
  Mg  Mg3752    1.0  0.70000  0.36667  0.95000  1.0000
  Mg  Mg3753    1.0  0.80000  0.30000  0.90000  1.0000
  Mg  Mg3754    1.0  0.85000  0.35000  0.90000  1.0000
  Mg  Mg3755    1.0  0.85000  0.31667  0.95000  1.0000
  Mg  Mg3756    1.0  0.80000  0.36667  0.95000  1.0000
  Mg  Mg3757    1.0  0.90000  0.30000  0.90000  1.0000
  Mg  Mg3758    1.0  0.95000  0.35000  0.90000  1.0000
  Mg  Mg3759    1.0  0.95000  0.31667  0.95000  1.0000
  Mg  Mg3760    1.0  0.90000  0.36667  0.95000  1.0000
  Mg  Mg3761    1.0  0.00000  0.40000  0.90000  1.0000
  Mg  Mg3762    1.0  0.05000  0.45000  0.90000  1.0000
  Mg  Mg3763    1.0  0.05000  0.41667  0.95000  1.0000
  Mg  Mg3764    1.0  0.00000  0.46667  0.95000  1.0000
  Mg  Mg3765    1.0  0.10000  0.40000  0.90000  1.0000
  Mg  Mg3766    1.0  0.15000  0.45000  0.90000  1.0000
  Mg  Mg3767    1.0  0.15000  0.41667  0.95000  1.0000
  Mg  Mg3768    1.0  0.10000  0.46667  0.95000  1.0000
  Mg  Mg3769    1.0  0.20000  0.40000  0.90000  1.0000
  Mg  Mg3770    1.0  0.25000  0.45000  0.90000  1.0000
  Mg  Mg3771    1.0  0.25000  0.41667  0.95000  1.0000
  Mg  Mg3772    1.0  0.20000  0.46667  0.95000  1.0000
  Mg  Mg3773    1.0  0.30000  0.40000  0.90000  1.0000
  Mg  Mg3774    1.0  0.35000  0.45000  0.90000  1.0000
  Mg  Mg3775    1.0  0.35000  0.41667  0.95000  1.0000
  Mg  Mg3776    1.0  0.30000  0.46667  0.95000  1.0000
  Mg  Mg3777    1.0  0.40000  0.40000  0.90000  1.0000
  Mg  Mg3778    1.0  0.45000  0.45000  0.90000  1.0000
  Mg  Mg3779    1.0  0.45000  0.41667  0.95000  1.0000
  Mg  Mg3780    1.0  0.40000  0.46667  0.95000  1.0000
  Mg  Mg3781    1.0  0.50000  0.40000  0.90000  1.0000
  Mg  Mg3782    1.0  0.55000  0.45000  0.90000  1.0000
  Mg  Mg3783    1.0  0.55000  0.41667  0.95000  1.0000
  Mg  Mg3784    1.0  0.50000  0.46667  0.95000  1.0000
  Mg  Mg3785    1.0  0.60000  0.40000  0.90000  1.0000
  Mg  Mg3786    1.0  0.65000  0.45000  0.90000  1.0000
  Mg  Mg3787    1.0  0.65000  0.41667  0.95000  1.0000
  Mg  Mg3788    1.0  0.60000  0.46667  0.95000  1.0000
  Mg  Mg3789    1.0  0.70000  0.40000  0.90000  1.0000
  Mg  Mg3790    1.0  0.75000  0.45000  0.90000  1.0000
  Mg  Mg3791    1.0  0.75000  0.41667  0.95000  1.0000
  Mg  Mg3792    1.0  0.70000  0.46667  0.95000  1.0000
  Mg  Mg3793    1.0  0.80000  0.40000  0.90000  1.0000
  Mg  Mg3794    1.0  0.85000  0.45000  0.90000  1.0000
  Mg  Mg3795    1.0  0.85000  0.41667  0.95000  1.0000
  Mg  Mg3796    1.0  0.80000  0.46667  0.95000  1.0000
  Mg  Mg3797    1.0  0.90000  0.40000  0.90000  1.0000
  Mg  Mg3798    1.0  0.95000  0.45000  0.90000  1.0000
  Mg  Mg3799    1.0  0.95000  0.41667  0.95000  1.0000
  Mg  Mg3800    1.0  0.90000  0.46667  0.95000  1.0000
  Mg  Mg3801    1.0  0.00000  0.50000  0.90000  1.0000
  Mg  Mg3802    1.0  0.05000  0.55000  0.90000  1.0000
  Mg  Mg3803    1.0  0.05000  0.51667  0.95000  1.0000
  Mg  Mg3804    1.0  0.00000  0.56667  0.95000  1.0000
  Mg  Mg3805    1.0  0.10000  0.50000  0.90000  1.0000
  Mg  Mg3806    1.0  0.15000  0.55000  0.90000  1.0000
  Mg  Mg3807    1.0  0.15000  0.51667  0.95000  1.0000
  Mg  Mg3808    1.0  0.10000  0.56667  0.95000  1.0000
  Mg  Mg3809    1.0  0.20000  0.50000  0.90000  1.0000
  Mg  Mg3810    1.0  0.25000  0.55000  0.90000  1.0000
  Mg  Mg3811    1.0  0.25000  0.51667  0.95000  1.0000
  Mg  Mg3812    1.0  0.20000  0.56667  0.95000  1.0000
  Mg  Mg3813    1.0  0.30000  0.50000  0.90000  1.0000
  Mg  Mg3814    1.0  0.35000  0.55000  0.90000  1.0000
  Mg  Mg3815    1.0  0.35000  0.51667  0.95000  1.0000
  Mg  Mg3816    1.0  0.30000  0.56667  0.95000  1.0000
  Mg  Mg3817    1.0  0.40000  0.50000  0.90000  1.0000
  Mg  Mg3818    1.0  0.45000  0.55000  0.90000  1.0000
  Mg  Mg3819    1.0  0.45000  0.51667  0.95000  1.0000
  Mg  Mg3820    1.0  0.40000  0.56667  0.95000  1.0000
  Mg  Mg3821    1.0  0.50000  0.50000  0.90000  1.0000
  Mg  Mg3822    1.0  0.55000  0.55000  0.90000  1.0000
  Mg  Mg3823    1.0  0.55000  0.51667  0.95000  1.0000
  Mg  Mg3824    1.0  0.50000  0.56667  0.95000  1.0000
  Mg  Mg3825    1.0  0.60000  0.50000  0.90000  1.0000
  Mg  Mg3826    1.0  0.65000  0.55000  0.90000  1.0000
  Mg  Mg3827    1.0  0.65000  0.51667  0.95000  1.0000
  Mg  Mg3828    1.0  0.60000  0.56667  0.95000  1.0000
  Mg  Mg3829    1.0  0.70000  0.50000  0.90000  1.0000
  Mg  Mg3830    1.0  0.75000  0.55000  0.90000  1.0000
  Mg  Mg3831    1.0  0.75000  0.51667  0.95000  1.0000
  Mg  Mg3832    1.0  0.70000  0.56667  0.95000  1.0000
  Mg  Mg3833    1.0  0.80000  0.50000  0.90000  1.0000
  Mg  Mg3834    1.0  0.85000  0.55000  0.90000  1.0000
  Mg  Mg3835    1.0  0.85000  0.51667  0.95000  1.0000
  Mg  Mg3836    1.0  0.80000  0.56667  0.95000  1.0000
  Mg  Mg3837    1.0  0.90000  0.50000  0.90000  1.0000
  Mg  Mg3838    1.0  0.95000  0.55000  0.90000  1.0000
  Mg  Mg3839    1.0  0.95000  0.51667  0.95000  1.0000
  Mg  Mg3840    1.0  0.90000  0.56667  0.95000  1.0000
  Mg  Mg3841    1.0  0.00000  0.60000  0.90000  1.0000
  Mg  Mg3842    1.0  0.05000  0.65000  0.90000  1.0000
  Mg  Mg3843    1.0  0.05000  0.61667  0.95000  1.0000
  Mg  Mg3844    1.0  0.00000  0.66667  0.95000  1.0000
  Mg  Mg3845    1.0  0.10000  0.60000  0.90000  1.0000
  Mg  Mg3846    1.0  0.15000  0.65000  0.90000  1.0000
  Mg  Mg3847    1.0  0.15000  0.61667  0.95000  1.0000
  Mg  Mg3848    1.0  0.10000  0.66667  0.95000  1.0000
  Mg  Mg3849    1.0  0.20000  0.60000  0.90000  1.0000
  Mg  Mg3850    1.0  0.25000  0.65000  0.90000  1.0000
  Mg  Mg3851    1.0  0.25000  0.61667  0.95000  1.0000
  Mg  Mg3852    1.0  0.20000  0.66667  0.95000  1.0000
  Mg  Mg3853    1.0  0.30000  0.60000  0.90000  1.0000
  Mg  Mg3854    1.0  0.35000  0.65000  0.90000  1.0000
  Mg  Mg3855    1.0  0.35000  0.61667  0.95000  1.0000
  Mg  Mg3856    1.0  0.30000  0.66667  0.95000  1.0000
  Mg  Mg3857    1.0  0.40000  0.60000  0.90000  1.0000
  Mg  Mg3858    1.0  0.45000  0.65000  0.90000  1.0000
  Mg  Mg3859    1.0  0.45000  0.61667  0.95000  1.0000
  Mg  Mg3860    1.0  0.40000  0.66667  0.95000  1.0000
  Mg  Mg3861    1.0  0.50000  0.60000  0.90000  1.0000
  Mg  Mg3862    1.0  0.55000  0.65000  0.90000  1.0000
  Mg  Mg3863    1.0  0.55000  0.61667  0.95000  1.0000
  Mg  Mg3864    1.0  0.50000  0.66667  0.95000  1.0000
  Mg  Mg3865    1.0  0.60000  0.60000  0.90000  1.0000
  Mg  Mg3866    1.0  0.65000  0.65000  0.90000  1.0000
  Mg  Mg3867    1.0  0.65000  0.61667  0.95000  1.0000
  Mg  Mg3868    1.0  0.60000  0.66667  0.95000  1.0000
  Mg  Mg3869    1.0  0.70000  0.60000  0.90000  1.0000
  Mg  Mg3870    1.0  0.75000  0.65000  0.90000  1.0000
  Mg  Mg3871    1.0  0.75000  0.61667  0.95000  1.0000
  Mg  Mg3872    1.0  0.70000  0.66667  0.95000  1.0000
  Mg  Mg3873    1.0  0.80000  0.60000  0.90000  1.0000
  Mg  Mg3874    1.0  0.85000  0.65000  0.90000  1.0000
  Mg  Mg3875    1.0  0.85000  0.61667  0.95000  1.0000
  Mg  Mg3876    1.0  0.80000  0.66667  0.95000  1.0000
  Mg  Mg3877    1.0  0.90000  0.60000  0.90000  1.0000
  Mg  Mg3878    1.0  0.95000  0.65000  0.90000  1.0000
  Mg  Mg3879    1.0  0.95000  0.61667  0.95000  1.0000
  Mg  Mg3880    1.0  0.90000  0.66667  0.95000  1.0000
  Mg  Mg3881    1.0  0.00000  0.70000  0.90000  1.0000
  Mg  Mg3882    1.0  0.05000  0.75000  0.90000  1.0000
  Mg  Mg3883    1.0  0.05000  0.71667  0.95000  1.0000
  Mg  Mg3884    1.0  0.00000  0.76667  0.95000  1.0000
  Mg  Mg3885    1.0  0.10000  0.70000  0.90000  1.0000
  Mg  Mg3886    1.0  0.15000  0.75000  0.90000  1.0000
  Mg  Mg3887    1.0  0.15000  0.71667  0.95000  1.0000
  Mg  Mg3888    1.0  0.10000  0.76667  0.95000  1.0000
  Mg  Mg3889    1.0  0.20000  0.70000  0.90000  1.0000
  Mg  Mg3890    1.0  0.25000  0.75000  0.90000  1.0000
  Mg  Mg3891    1.0  0.25000  0.71667  0.95000  1.0000
  Mg  Mg3892    1.0  0.20000  0.76667  0.95000  1.0000
  Mg  Mg3893    1.0  0.30000  0.70000  0.90000  1.0000
  Mg  Mg3894    1.0  0.35000  0.75000  0.90000  1.0000
  Mg  Mg3895    1.0  0.35000  0.71667  0.95000  1.0000
  Mg  Mg3896    1.0  0.30000  0.76667  0.95000  1.0000
  Mg  Mg3897    1.0  0.40000  0.70000  0.90000  1.0000
  Mg  Mg3898    1.0  0.45000  0.75000  0.90000  1.0000
  Mg  Mg3899    1.0  0.45000  0.71667  0.95000  1.0000
  Mg  Mg3900    1.0  0.40000  0.76667  0.95000  1.0000
  Mg  Mg3901    1.0  0.50000  0.70000  0.90000  1.0000
  Mg  Mg3902    1.0  0.55000  0.75000  0.90000  1.0000
  Mg  Mg3903    1.0  0.55000  0.71667  0.95000  1.0000
  Mg  Mg3904    1.0  0.50000  0.76667  0.95000  1.0000
  Mg  Mg3905    1.0  0.60000  0.70000  0.90000  1.0000
  Mg  Mg3906    1.0  0.65000  0.75000  0.90000  1.0000
  Mg  Mg3907    1.0  0.65000  0.71667  0.95000  1.0000
  Mg  Mg3908    1.0  0.60000  0.76667  0.95000  1.0000
  Mg  Mg3909    1.0  0.70000  0.70000  0.90000  1.0000
  Mg  Mg3910    1.0  0.75000  0.75000  0.90000  1.0000
  Mg  Mg3911    1.0  0.75000  0.71667  0.95000  1.0000
  Mg  Mg3912    1.0  0.70000  0.76667  0.95000  1.0000
  Mg  Mg3913    1.0  0.80000  0.70000  0.90000  1.0000
  Mg  Mg3914    1.0  0.85000  0.75000  0.90000  1.0000
  Mg  Mg3915    1.0  0.85000  0.71667  0.95000  1.0000
  Mg  Mg3916    1.0  0.80000  0.76667  0.95000  1.0000
  Mg  Mg3917    1.0  0.90000  0.70000  0.90000  1.0000
  Mg  Mg3918    1.0  0.95000  0.75000  0.90000  1.0000
  Mg  Mg3919    1.0  0.95000  0.71667  0.95000  1.0000
  Mg  Mg3920    1.0  0.90000  0.76667  0.95000  1.0000
  Mg  Mg3921    1.0  0.00000  0.80000  0.90000  1.0000
  Mg  Mg3922    1.0  0.05000  0.85000  0.90000  1.0000
  Mg  Mg3923    1.0  0.05000  0.81667  0.95000  1.0000
  Mg  Mg3924    1.0  0.00000  0.86667  0.95000  1.0000
  Mg  Mg3925    1.0  0.10000  0.80000  0.90000  1.0000
  Mg  Mg3926    1.0  0.15000  0.85000  0.90000  1.0000
  Mg  Mg3927    1.0  0.15000  0.81667  0.95000  1.0000
  Mg  Mg3928    1.0  0.10000  0.86667  0.95000  1.0000
  Mg  Mg3929    1.0  0.20000  0.80000  0.90000  1.0000
  Mg  Mg3930    1.0  0.25000  0.85000  0.90000  1.0000
  Mg  Mg3931    1.0  0.25000  0.81667  0.95000  1.0000
  Mg  Mg3932    1.0  0.20000  0.86667  0.95000  1.0000
  Mg  Mg3933    1.0  0.30000  0.80000  0.90000  1.0000
  Mg  Mg3934    1.0  0.35000  0.85000  0.90000  1.0000
  Mg  Mg3935    1.0  0.35000  0.81667  0.95000  1.0000
  Mg  Mg3936    1.0  0.30000  0.86667  0.95000  1.0000
  Mg  Mg3937    1.0  0.40000  0.80000  0.90000  1.0000
  Mg  Mg3938    1.0  0.45000  0.85000  0.90000  1.0000
  Mg  Mg3939    1.0  0.45000  0.81667  0.95000  1.0000
  Mg  Mg3940    1.0  0.40000  0.86667  0.95000  1.0000
  Mg  Mg3941    1.0  0.50000  0.80000  0.90000  1.0000
  Mg  Mg3942    1.0  0.55000  0.85000  0.90000  1.0000
  Mg  Mg3943    1.0  0.55000  0.81667  0.95000  1.0000
  Mg  Mg3944    1.0  0.50000  0.86667  0.95000  1.0000
  Mg  Mg3945    1.0  0.60000  0.80000  0.90000  1.0000
  Mg  Mg3946    1.0  0.65000  0.85000  0.90000  1.0000
  Mg  Mg3947    1.0  0.65000  0.81667  0.95000  1.0000
  Mg  Mg3948    1.0  0.60000  0.86667  0.95000  1.0000
  Mg  Mg3949    1.0  0.70000  0.80000  0.90000  1.0000
  Mg  Mg3950    1.0  0.75000  0.85000  0.90000  1.0000
  Mg  Mg3951    1.0  0.75000  0.81667  0.95000  1.0000
  Mg  Mg3952    1.0  0.70000  0.86667  0.95000  1.0000
  Mg  Mg3953    1.0  0.80000  0.80000  0.90000  1.0000
  Mg  Mg3954    1.0  0.85000  0.85000  0.90000  1.0000
  Mg  Mg3955    1.0  0.85000  0.81667  0.95000  1.0000
  Mg  Mg3956    1.0  0.80000  0.86667  0.95000  1.0000
  Mg  Mg3957    1.0  0.90000  0.80000  0.90000  1.0000
  Mg  Mg3958    1.0  0.95000  0.85000  0.90000  1.0000
  Mg  Mg3959    1.0  0.95000  0.81667  0.95000  1.0000
  Mg  Mg3960    1.0  0.90000  0.86667  0.95000  1.0000
  Mg  Mg3961    1.0  0.00000  0.90000  0.90000  1.0000
  Mg  Mg3962    1.0  0.05000  0.95000  0.90000  1.0000
  Mg  Mg3963    1.0  0.05000  0.91667  0.95000  1.0000
  Mg  Mg3964    1.0  0.00000  0.96667  0.95000  1.0000
  Mg  Mg3965    1.0  0.10000  0.90000  0.90000  1.0000
  Mg  Mg3966    1.0  0.15000  0.95000  0.90000  1.0000
  Mg  Mg3967    1.0  0.15000  0.91667  0.95000  1.0000
  Mg  Mg3968    1.0  0.10000  0.96667  0.95000  1.0000
  Mg  Mg3969    1.0  0.20000  0.90000  0.90000  1.0000
  Mg  Mg3970    1.0  0.25000  0.95000  0.90000  1.0000
  Mg  Mg3971    1.0  0.25000  0.91667  0.95000  1.0000
  Mg  Mg3972    1.0  0.20000  0.96667  0.95000  1.0000
  Mg  Mg3973    1.0  0.30000  0.90000  0.90000  1.0000
  Mg  Mg3974    1.0  0.35000  0.95000  0.90000  1.0000
  Mg  Mg3975    1.0  0.35000  0.91667  0.95000  1.0000
  Mg  Mg3976    1.0  0.30000  0.96667  0.95000  1.0000
  Mg  Mg3977    1.0  0.40000  0.90000  0.90000  1.0000
  Mg  Mg3978    1.0  0.45000  0.95000  0.90000  1.0000
  Mg  Mg3979    1.0  0.45000  0.91667  0.95000  1.0000
  Mg  Mg3980    1.0  0.40000  0.96667  0.95000  1.0000
  Mg  Mg3981    1.0  0.50000  0.90000  0.90000  1.0000
  Mg  Mg3982    1.0  0.55000  0.95000  0.90000  1.0000
  Mg  Mg3983    1.0  0.55000  0.91667  0.95000  1.0000
  Mg  Mg3984    1.0  0.50000  0.96667  0.95000  1.0000
  Mg  Mg3985    1.0  0.60000  0.90000  0.90000  1.0000
  Mg  Mg3986    1.0  0.65000  0.95000  0.90000  1.0000
  Mg  Mg3987    1.0  0.65000  0.91667  0.95000  1.0000
  Mg  Mg3988    1.0  0.60000  0.96667  0.95000  1.0000
  Mg  Mg3989    1.0  0.70000  0.90000  0.90000  1.0000
  Mg  Mg3990    1.0  0.75000  0.95000  0.90000  1.0000
  Mg  Mg3991    1.0  0.75000  0.91667  0.95000  1.0000
  Mg  Mg3992    1.0  0.70000  0.96667  0.95000  1.0000
  Mg  Mg3993    1.0  0.80000  0.90000  0.90000  1.0000
  Mg  Mg3994    1.0  0.85000  0.95000  0.90000  1.0000
  Mg  Mg3995    1.0  0.85000  0.91667  0.95000  1.0000
  Mg  Mg3996    1.0  0.80000  0.96667  0.95000  1.0000
  Mg  Mg3997    1.0  0.90000  0.90000  0.90000  1.0000
  Mg  Mg3998    1.0  0.95000  0.95000  0.90000  1.0000
  Mg  Mg3999    1.0  0.95000  0.91667  0.95000  1.0000
  Mg  Mg4000    1.0  0.90000  0.96667  0.95000  1.0000
